BEGIN Configuration File: chi_traffic
// CHI coherent-workload traffic file for BookSim (auto-generated by gen_chi_traffic.py).
// Requires the class_subnet source patch. Mix is generated from transaction categories.
// 42 routers x 4 RN/HN terminals + 4 DDR SN terminals = 172 nodes.
// SN placement: R1=node168@(0,1), R2=node169@(0,2), R4=node170@(0,4), R5=node171@(0,5).
// channels -> subnets: REQ=0 RSP=1 SNP=2 DAT=3 ; data=2 flit, ctrl=1 flit.
// total transaction rate LAMBDA=0.05; scenario-table driven from CHI HN-F/L3/SF flows.
// SN participates only in Read DMT miss, async L3 eviction, and CleanInvalid dirty writeback.
//
// class -> category.subtype.message:
//   c0  write.WriteBack.l3_accept.WriteBack                  REQ RN->HN size=1 inj=0.05
//   c1  write.WriteBack.l3_accept.DBIDResp                   RSP HN->RN size=1 inj=0.05
//   c2  write.WriteBack.l3_accept.CopyBackWriteData          DAT RN->HN size=2 inj=0.05
//   c3  write.WriteBack.l3_accept.Comp                       RSP HN->RN size=1 inj=0.05
//   c4  write.WriteBack.async_l3_evict.L3EvictReq                 REQ HN->SN size=1 inj=0.05
//   c5  write.WriteBack.async_l3_evict.L3EvictData                DAT HN->SN size=2 inj=0.05
//   c6  write.WriteBack.async_l3_evict.L3EvictComp                RSP SN->HN size=1 inj=0.05

topology     = anynet;
network_file = chi_traffic_anynet;
routing_function = xy;
anynet_cols  = 7;   // mesh width, used by xy_anynet to recover (row,col)

classes        = 7;
use_read_write = {0,0,0,0,0,0,0};
subnets        = 4;
class_subnet   = {0,1,3,1,0,3,1};   // REQ=0 RSP=1 SNP=2 DAT=3
class_source   = {{0,1,4,5,8,9,12,13,16,17,20,21,24,25,28,29,32,33,36,37,40,41,44,45,48,49,52,53,56,57,60,61,64,65,68,69,72,73,76,77,80,81,84,85,88,89,92,93,96,97,100,101,104,105,108,109,112,113,116,117,120,121,124,125,128,129,132,133,136,137,140,141,144,145,148,149,152,153,156,157,160,161,164,165},{2,3,6,7,10,11,14,15,18,19,22,23,26,27,30,31,34,35,38,39,42,43,46,47,50,51,54,55,58,59,62,63,66,67,70,71,74,75,78,79,82,83,86,87,90,91,94,95,98,99,102,103,106,107,110,111,114,115,118,119,122,123,126,127,130,131,134,135,138,139,142,143,146,147,150,151,154,155,158,159,162,163,166,167},{0,1,4,5,8,9,12,13,16,17,20,21,24,25,28,29,32,33,36,37,40,41,44,45,48,49,52,53,56,57,60,61,64,65,68,69,72,73,76,77,80,81,84,85,88,89,92,93,96,97,100,101,104,105,108,109,112,113,116,117,120,121,124,125,128,129,132,133,136,137,140,141,144,145,148,149,152,153,156,157,160,161,164,165},{2,3,6,7,10,11,14,15,18,19,22,23,26,27,30,31,34,35,38,39,42,43,46,47,50,51,54,55,58,59,62,63,66,67,70,71,74,75,78,79,82,83,86,87,90,91,94,95,98,99,102,103,106,107,110,111,114,115,118,119,122,123,126,127,130,131,134,135,138,139,142,143,146,147,150,151,154,155,158,159,162,163,166,167},{2,3,6,7,10,11,14,15,18,19,22,23,26,27,30,31,34,35,38,39,42,43,46,47,50,51,54,55,58,59,62,63,66,67,70,71,74,75,78,79,82,83,86,87,90,91,94,95,98,99,102,103,106,107,110,111,114,115,118,119,122,123,126,127,130,131,134,135,138,139,142,143,146,147,150,151,154,155,158,159,162,163,166,167},{2,3,6,7,10,11,14,15,18,19,22,23,26,27,30,31,34,35,38,39,42,43,46,47,50,51,54,55,58,59,62,63,66,67,70,71,74,75,78,79,82,83,86,87,90,91,94,95,98,99,102,103,106,107,110,111,114,115,118,119,122,123,126,127,130,131,134,135,138,139,142,143,146,147,150,151,154,155,158,159,162,163,166,167},{168,169,170,171}};   // allowed source nodes per class
packet_size    = {1,1,2,1,1,2,1};
injection_rate = {0.05,0.05,0.05,0.05,0.05,0.05,0.05};       // per-message rates derived from full flows
traffic        = {hotspot({{2,3,6,7,10,11,14,15,18,19,22,23,26,27,30,31,34,35,38,39,42,43,46,47,50,51,54,55,58,59,62,63,66,67,70,71,74,75,78,79,82,83,86,87,90,91,94,95,98,99,102,103,106,107,110,111,114,115,118,119,122,123,126,127,130,131,134,135,138,139,142,143,146,147,150,151,154,155,158,159,162,163,166,167}}),hotspot({{0,1,4,5,8,9,12,13,16,17,20,21,24,25,28,29,32,33,36,37,40,41,44,45,48,49,52,53,56,57,60,61,64,65,68,69,72,73,76,77,80,81,84,85,88,89,92,93,96,97,100,101,104,105,108,109,112,113,116,117,120,121,124,125,128,129,132,133,136,137,140,141,144,145,148,149,152,153,156,157,160,161,164,165}}),hotspot({{2,3,6,7,10,11,14,15,18,19,22,23,26,27,30,31,34,35,38,39,42,43,46,47,50,51,54,55,58,59,62,63,66,67,70,71,74,75,78,79,82,83,86,87,90,91,94,95,98,99,102,103,106,107,110,111,114,115,118,119,122,123,126,127,130,131,134,135,138,139,142,143,146,147,150,151,154,155,158,159,162,163,166,167}}),hotspot({{0,1,4,5,8,9,12,13,16,17,20,21,24,25,28,29,32,33,36,37,40,41,44,45,48,49,52,53,56,57,60,61,64,65,68,69,72,73,76,77,80,81,84,85,88,89,92,93,96,97,100,101,104,105,108,109,112,113,116,117,120,121,124,125,128,129,132,133,136,137,140,141,144,145,148,149,152,153,156,157,160,161,164,165}}),hotspot({{168,169,170,171}}),hotspot({{168,169,170,171}}),hotspot({{2,3,6,7,10,11,14,15,18,19,22,23,26,27,30,31,34,35,38,39,42,43,46,47,50,51,54,55,58,59,62,63,66,67,70,71,74,75,78,79,82,83,86,87,90,91,94,95,98,99,102,103,106,107,110,111,114,115,118,119,122,123,126,127,130,131,134,135,138,139,142,143,146,147,150,151,154,155,158,159,162,163,166,167}})};

num_vcs     = 2;
vc_buf_size = 8;
vc_allocator = islip;
sw_allocator = separable_output_first(round_robin);
alloc_iters  = 1;

sim_type       = latency;
sample_period  = 1000;
warmup_periods = 3;
sim_count      = 1;
max_samples    = 20;
latency_thres  = 500.0;
stats_out = sn_local_stats.m;

END Configuration File: chi_traffic
========================Network File Parsed=================
******************node listing**********************
Node 0	Router 0
Node 1	Router 0
Node 2	Router 0
Node 3	Router 0
Node 4	Router 1
Node 5	Router 1
Node 6	Router 1
Node 7	Router 1
Node 8	Router 2
Node 9	Router 2
Node 10	Router 2
Node 11	Router 2
Node 12	Router 3
Node 13	Router 3
Node 14	Router 3
Node 15	Router 3
Node 16	Router 4
Node 17	Router 4
Node 18	Router 4
Node 19	Router 4
Node 20	Router 5
Node 21	Router 5
Node 22	Router 5
Node 23	Router 5
Node 24	Router 6
Node 25	Router 6
Node 26	Router 6
Node 27	Router 6
Node 28	Router 7
Node 29	Router 7
Node 30	Router 7
Node 31	Router 7
Node 32	Router 8
Node 33	Router 8
Node 34	Router 8
Node 35	Router 8
Node 36	Router 9
Node 37	Router 9
Node 38	Router 9
Node 39	Router 9
Node 40	Router 10
Node 41	Router 10
Node 42	Router 10
Node 43	Router 10
Node 44	Router 11
Node 45	Router 11
Node 46	Router 11
Node 47	Router 11
Node 48	Router 12
Node 49	Router 12
Node 50	Router 12
Node 51	Router 12
Node 52	Router 13
Node 53	Router 13
Node 54	Router 13
Node 55	Router 13
Node 56	Router 14
Node 57	Router 14
Node 58	Router 14
Node 59	Router 14
Node 60	Router 15
Node 61	Router 15
Node 62	Router 15
Node 63	Router 15
Node 64	Router 16
Node 65	Router 16
Node 66	Router 16
Node 67	Router 16
Node 68	Router 17
Node 69	Router 17
Node 70	Router 17
Node 71	Router 17
Node 72	Router 18
Node 73	Router 18
Node 74	Router 18
Node 75	Router 18
Node 76	Router 19
Node 77	Router 19
Node 78	Router 19
Node 79	Router 19
Node 80	Router 20
Node 81	Router 20
Node 82	Router 20
Node 83	Router 20
Node 84	Router 21
Node 85	Router 21
Node 86	Router 21
Node 87	Router 21
Node 88	Router 22
Node 89	Router 22
Node 90	Router 22
Node 91	Router 22
Node 92	Router 23
Node 93	Router 23
Node 94	Router 23
Node 95	Router 23
Node 96	Router 24
Node 97	Router 24
Node 98	Router 24
Node 99	Router 24
Node 100	Router 25
Node 101	Router 25
Node 102	Router 25
Node 103	Router 25
Node 104	Router 26
Node 105	Router 26
Node 106	Router 26
Node 107	Router 26
Node 108	Router 27
Node 109	Router 27
Node 110	Router 27
Node 111	Router 27
Node 112	Router 28
Node 113	Router 28
Node 114	Router 28
Node 115	Router 28
Node 116	Router 29
Node 117	Router 29
Node 118	Router 29
Node 119	Router 29
Node 120	Router 30
Node 121	Router 30
Node 122	Router 30
Node 123	Router 30
Node 124	Router 31
Node 125	Router 31
Node 126	Router 31
Node 127	Router 31
Node 128	Router 32
Node 129	Router 32
Node 130	Router 32
Node 131	Router 32
Node 132	Router 33
Node 133	Router 33
Node 134	Router 33
Node 135	Router 33
Node 136	Router 34
Node 137	Router 34
Node 138	Router 34
Node 139	Router 34
Node 140	Router 35
Node 141	Router 35
Node 142	Router 35
Node 143	Router 35
Node 144	Router 36
Node 145	Router 36
Node 146	Router 36
Node 147	Router 36
Node 148	Router 37
Node 149	Router 37
Node 150	Router 37
Node 151	Router 37
Node 152	Router 38
Node 153	Router 38
Node 154	Router 38
Node 155	Router 38
Node 156	Router 39
Node 157	Router 39
Node 158	Router 39
Node 159	Router 39
Node 160	Router 40
Node 161	Router 40
Node 162	Router 40
Node 163	Router 40
Node 164	Router 41
Node 165	Router 41
Node 166	Router 41
Node 167	Router 41
Node 168	Router 1
Node 169	Router 2
Node 170	Router 4
Node 171	Router 5

****************router to node listing*************
Router 0
	 Node 0 lat 1
	 Node 1 lat 1
	 Node 2 lat 1
	 Node 3 lat 1
Router 1
	 Node 4 lat 1
	 Node 5 lat 1
	 Node 6 lat 1
	 Node 7 lat 1
	 Node 168 lat 1
Router 2
	 Node 8 lat 1
	 Node 9 lat 1
	 Node 10 lat 1
	 Node 11 lat 1
	 Node 169 lat 1
Router 3
	 Node 12 lat 1
	 Node 13 lat 1
	 Node 14 lat 1
	 Node 15 lat 1
Router 4
	 Node 16 lat 1
	 Node 17 lat 1
	 Node 18 lat 1
	 Node 19 lat 1
	 Node 170 lat 1
Router 5
	 Node 20 lat 1
	 Node 21 lat 1
	 Node 22 lat 1
	 Node 23 lat 1
	 Node 171 lat 1
Router 6
	 Node 24 lat 1
	 Node 25 lat 1
	 Node 26 lat 1
	 Node 27 lat 1
Router 7
	 Node 28 lat 1
	 Node 29 lat 1
	 Node 30 lat 1
	 Node 31 lat 1
Router 8
	 Node 32 lat 1
	 Node 33 lat 1
	 Node 34 lat 1
	 Node 35 lat 1
Router 9
	 Node 36 lat 1
	 Node 37 lat 1
	 Node 38 lat 1
	 Node 39 lat 1
Router 10
	 Node 40 lat 1
	 Node 41 lat 1
	 Node 42 lat 1
	 Node 43 lat 1
Router 11
	 Node 44 lat 1
	 Node 45 lat 1
	 Node 46 lat 1
	 Node 47 lat 1
Router 12
	 Node 48 lat 1
	 Node 49 lat 1
	 Node 50 lat 1
	 Node 51 lat 1
Router 13
	 Node 52 lat 1
	 Node 53 lat 1
	 Node 54 lat 1
	 Node 55 lat 1
Router 14
	 Node 56 lat 1
	 Node 57 lat 1
	 Node 58 lat 1
	 Node 59 lat 1
Router 15
	 Node 60 lat 1
	 Node 61 lat 1
	 Node 62 lat 1
	 Node 63 lat 1
Router 16
	 Node 64 lat 1
	 Node 65 lat 1
	 Node 66 lat 1
	 Node 67 lat 1
Router 17
	 Node 68 lat 1
	 Node 69 lat 1
	 Node 70 lat 1
	 Node 71 lat 1
Router 18
	 Node 72 lat 1
	 Node 73 lat 1
	 Node 74 lat 1
	 Node 75 lat 1
Router 19
	 Node 76 lat 1
	 Node 77 lat 1
	 Node 78 lat 1
	 Node 79 lat 1
Router 20
	 Node 80 lat 1
	 Node 81 lat 1
	 Node 82 lat 1
	 Node 83 lat 1
Router 21
	 Node 84 lat 1
	 Node 85 lat 1
	 Node 86 lat 1
	 Node 87 lat 1
Router 22
	 Node 88 lat 1
	 Node 89 lat 1
	 Node 90 lat 1
	 Node 91 lat 1
Router 23
	 Node 92 lat 1
	 Node 93 lat 1
	 Node 94 lat 1
	 Node 95 lat 1
Router 24
	 Node 96 lat 1
	 Node 97 lat 1
	 Node 98 lat 1
	 Node 99 lat 1
Router 25
	 Node 100 lat 1
	 Node 101 lat 1
	 Node 102 lat 1
	 Node 103 lat 1
Router 26
	 Node 104 lat 1
	 Node 105 lat 1
	 Node 106 lat 1
	 Node 107 lat 1
Router 27
	 Node 108 lat 1
	 Node 109 lat 1
	 Node 110 lat 1
	 Node 111 lat 1
Router 28
	 Node 112 lat 1
	 Node 113 lat 1
	 Node 114 lat 1
	 Node 115 lat 1
Router 29
	 Node 116 lat 1
	 Node 117 lat 1
	 Node 118 lat 1
	 Node 119 lat 1
Router 30
	 Node 120 lat 1
	 Node 121 lat 1
	 Node 122 lat 1
	 Node 123 lat 1
Router 31
	 Node 124 lat 1
	 Node 125 lat 1
	 Node 126 lat 1
	 Node 127 lat 1
Router 32
	 Node 128 lat 1
	 Node 129 lat 1
	 Node 130 lat 1
	 Node 131 lat 1
Router 33
	 Node 132 lat 1
	 Node 133 lat 1
	 Node 134 lat 1
	 Node 135 lat 1
Router 34
	 Node 136 lat 1
	 Node 137 lat 1
	 Node 138 lat 1
	 Node 139 lat 1
Router 35
	 Node 140 lat 1
	 Node 141 lat 1
	 Node 142 lat 1
	 Node 143 lat 1
Router 36
	 Node 144 lat 1
	 Node 145 lat 1
	 Node 146 lat 1
	 Node 147 lat 1
Router 37
	 Node 148 lat 1
	 Node 149 lat 1
	 Node 150 lat 1
	 Node 151 lat 1
Router 38
	 Node 152 lat 1
	 Node 153 lat 1
	 Node 154 lat 1
	 Node 155 lat 1
Router 39
	 Node 156 lat 1
	 Node 157 lat 1
	 Node 158 lat 1
	 Node 159 lat 1
Router 40
	 Node 160 lat 1
	 Node 161 lat 1
	 Node 162 lat 1
	 Node 163 lat 1
Router 41
	 Node 164 lat 1
	 Node 165 lat 1
	 Node 166 lat 1
	 Node 167 lat 1

*****************router to router listing************
Router 0
	 Router 1 lat 2
	 Router 7 lat 2
Router 1
	 Router 0 lat 2
	 Router 2 lat 2
	 Router 8 lat 2
Router 2
	 Router 1 lat 2
	 Router 3 lat 2
	 Router 9 lat 2
Router 3
	 Router 2 lat 2
	 Router 4 lat 2
	 Router 10 lat 2
Router 4
	 Router 3 lat 2
	 Router 5 lat 2
	 Router 11 lat 2
Router 5
	 Router 4 lat 2
	 Router 6 lat 2
	 Router 12 lat 2
Router 6
	 Router 5 lat 2
	 Router 13 lat 2
Router 7
	 Router 0 lat 2
	 Router 8 lat 2
	 Router 14 lat 2
Router 8
	 Router 1 lat 2
	 Router 7 lat 2
	 Router 9 lat 2
	 Router 15 lat 2
Router 9
	 Router 2 lat 2
	 Router 8 lat 2
	 Router 10 lat 2
	 Router 16 lat 2
Router 10
	 Router 3 lat 2
	 Router 9 lat 2
	 Router 11 lat 2
	 Router 17 lat 2
Router 11
	 Router 4 lat 2
	 Router 10 lat 2
	 Router 12 lat 2
	 Router 18 lat 2
Router 12
	 Router 5 lat 2
	 Router 11 lat 2
	 Router 13 lat 2
	 Router 19 lat 2
Router 13
	 Router 6 lat 2
	 Router 12 lat 2
	 Router 20 lat 2
Router 14
	 Router 7 lat 2
	 Router 15 lat 2
	 Router 21 lat 2
Router 15
	 Router 8 lat 2
	 Router 14 lat 2
	 Router 16 lat 2
	 Router 22 lat 2
Router 16
	 Router 9 lat 2
	 Router 15 lat 2
	 Router 17 lat 2
	 Router 23 lat 2
Router 17
	 Router 10 lat 2
	 Router 16 lat 2
	 Router 18 lat 2
	 Router 24 lat 2
Router 18
	 Router 11 lat 2
	 Router 17 lat 2
	 Router 19 lat 2
	 Router 25 lat 2
Router 19
	 Router 12 lat 2
	 Router 18 lat 2
	 Router 20 lat 2
	 Router 26 lat 2
Router 20
	 Router 13 lat 2
	 Router 19 lat 2
	 Router 27 lat 2
Router 21
	 Router 14 lat 2
	 Router 22 lat 2
	 Router 28 lat 2
Router 22
	 Router 15 lat 2
	 Router 21 lat 2
	 Router 23 lat 2
	 Router 29 lat 2
Router 23
	 Router 16 lat 2
	 Router 22 lat 2
	 Router 24 lat 2
	 Router 30 lat 2
Router 24
	 Router 17 lat 2
	 Router 23 lat 2
	 Router 25 lat 2
	 Router 31 lat 2
Router 25
	 Router 18 lat 2
	 Router 24 lat 2
	 Router 26 lat 2
	 Router 32 lat 2
Router 26
	 Router 19 lat 2
	 Router 25 lat 2
	 Router 27 lat 2
	 Router 33 lat 2
Router 27
	 Router 20 lat 2
	 Router 26 lat 2
	 Router 34 lat 2
Router 28
	 Router 21 lat 2
	 Router 29 lat 2
	 Router 35 lat 2
Router 29
	 Router 22 lat 2
	 Router 28 lat 2
	 Router 30 lat 2
	 Router 36 lat 2
Router 30
	 Router 23 lat 2
	 Router 29 lat 2
	 Router 31 lat 2
	 Router 37 lat 2
Router 31
	 Router 24 lat 2
	 Router 30 lat 2
	 Router 32 lat 2
	 Router 38 lat 2
Router 32
	 Router 25 lat 2
	 Router 31 lat 2
	 Router 33 lat 2
	 Router 39 lat 2
Router 33
	 Router 26 lat 2
	 Router 32 lat 2
	 Router 34 lat 2
	 Router 40 lat 2
Router 34
	 Router 27 lat 2
	 Router 33 lat 2
	 Router 41 lat 2
Router 35
	 Router 28 lat 2
	 Router 36 lat 2
Router 36
	 Router 29 lat 2
	 Router 35 lat 2
	 Router 37 lat 2
Router 37
	 Router 30 lat 2
	 Router 36 lat 2
	 Router 38 lat 2
Router 38
	 Router 31 lat 2
	 Router 37 lat 2
	 Router 39 lat 2
Router 39
	 Router 32 lat 2
	 Router 38 lat 2
	 Router 40 lat 2
Router 40
	 Router 33 lat 2
	 Router 39 lat 2
	 Router 41 lat 2
Router 41
	 Router 34 lat 2
	 Router 40 lat 2
==========================Node to Router =====================
router 0 radix 6
	 connected to node 0 at outport 0 lat 1
	 connected to node 1 at outport 1 lat 1
	 connected to node 2 at outport 2 lat 1
	 connected to node 3 at outport 3 lat 1
router 1 radix 8
	 connected to node 4 at outport 0 lat 1
	 connected to node 5 at outport 1 lat 1
	 connected to node 6 at outport 2 lat 1
	 connected to node 7 at outport 3 lat 1
	 connected to node 168 at outport 4 lat 1
router 2 radix 8
	 connected to node 8 at outport 0 lat 1
	 connected to node 9 at outport 1 lat 1
	 connected to node 10 at outport 2 lat 1
	 connected to node 11 at outport 3 lat 1
	 connected to node 169 at outport 4 lat 1
router 3 radix 7
	 connected to node 12 at outport 0 lat 1
	 connected to node 13 at outport 1 lat 1
	 connected to node 14 at outport 2 lat 1
	 connected to node 15 at outport 3 lat 1
router 4 radix 8
	 connected to node 16 at outport 0 lat 1
	 connected to node 17 at outport 1 lat 1
	 connected to node 18 at outport 2 lat 1
	 connected to node 19 at outport 3 lat 1
	 connected to node 170 at outport 4 lat 1
router 5 radix 8
	 connected to node 20 at outport 0 lat 1
	 connected to node 21 at outport 1 lat 1
	 connected to node 22 at outport 2 lat 1
	 connected to node 23 at outport 3 lat 1
	 connected to node 171 at outport 4 lat 1
router 6 radix 6
	 connected to node 24 at outport 0 lat 1
	 connected to node 25 at outport 1 lat 1
	 connected to node 26 at outport 2 lat 1
	 connected to node 27 at outport 3 lat 1
router 7 radix 7
	 connected to node 28 at outport 0 lat 1
	 connected to node 29 at outport 1 lat 1
	 connected to node 30 at outport 2 lat 1
	 connected to node 31 at outport 3 lat 1
router 8 radix 8
	 connected to node 32 at outport 0 lat 1
	 connected to node 33 at outport 1 lat 1
	 connected to node 34 at outport 2 lat 1
	 connected to node 35 at outport 3 lat 1
router 9 radix 8
	 connected to node 36 at outport 0 lat 1
	 connected to node 37 at outport 1 lat 1
	 connected to node 38 at outport 2 lat 1
	 connected to node 39 at outport 3 lat 1
router 10 radix 8
	 connected to node 40 at outport 0 lat 1
	 connected to node 41 at outport 1 lat 1
	 connected to node 42 at outport 2 lat 1
	 connected to node 43 at outport 3 lat 1
router 11 radix 8
	 connected to node 44 at outport 0 lat 1
	 connected to node 45 at outport 1 lat 1
	 connected to node 46 at outport 2 lat 1
	 connected to node 47 at outport 3 lat 1
router 12 radix 8
	 connected to node 48 at outport 0 lat 1
	 connected to node 49 at outport 1 lat 1
	 connected to node 50 at outport 2 lat 1
	 connected to node 51 at outport 3 lat 1
router 13 radix 7
	 connected to node 52 at outport 0 lat 1
	 connected to node 53 at outport 1 lat 1
	 connected to node 54 at outport 2 lat 1
	 connected to node 55 at outport 3 lat 1
router 14 radix 7
	 connected to node 56 at outport 0 lat 1
	 connected to node 57 at outport 1 lat 1
	 connected to node 58 at outport 2 lat 1
	 connected to node 59 at outport 3 lat 1
router 15 radix 8
	 connected to node 60 at outport 0 lat 1
	 connected to node 61 at outport 1 lat 1
	 connected to node 62 at outport 2 lat 1
	 connected to node 63 at outport 3 lat 1
router 16 radix 8
	 connected to node 64 at outport 0 lat 1
	 connected to node 65 at outport 1 lat 1
	 connected to node 66 at outport 2 lat 1
	 connected to node 67 at outport 3 lat 1
router 17 radix 8
	 connected to node 68 at outport 0 lat 1
	 connected to node 69 at outport 1 lat 1
	 connected to node 70 at outport 2 lat 1
	 connected to node 71 at outport 3 lat 1
router 18 radix 8
	 connected to node 72 at outport 0 lat 1
	 connected to node 73 at outport 1 lat 1
	 connected to node 74 at outport 2 lat 1
	 connected to node 75 at outport 3 lat 1
router 19 radix 8
	 connected to node 76 at outport 0 lat 1
	 connected to node 77 at outport 1 lat 1
	 connected to node 78 at outport 2 lat 1
	 connected to node 79 at outport 3 lat 1
router 20 radix 7
	 connected to node 80 at outport 0 lat 1
	 connected to node 81 at outport 1 lat 1
	 connected to node 82 at outport 2 lat 1
	 connected to node 83 at outport 3 lat 1
router 21 radix 7
	 connected to node 84 at outport 0 lat 1
	 connected to node 85 at outport 1 lat 1
	 connected to node 86 at outport 2 lat 1
	 connected to node 87 at outport 3 lat 1
router 22 radix 8
	 connected to node 88 at outport 0 lat 1
	 connected to node 89 at outport 1 lat 1
	 connected to node 90 at outport 2 lat 1
	 connected to node 91 at outport 3 lat 1
router 23 radix 8
	 connected to node 92 at outport 0 lat 1
	 connected to node 93 at outport 1 lat 1
	 connected to node 94 at outport 2 lat 1
	 connected to node 95 at outport 3 lat 1
router 24 radix 8
	 connected to node 96 at outport 0 lat 1
	 connected to node 97 at outport 1 lat 1
	 connected to node 98 at outport 2 lat 1
	 connected to node 99 at outport 3 lat 1
router 25 radix 8
	 connected to node 100 at outport 0 lat 1
	 connected to node 101 at outport 1 lat 1
	 connected to node 102 at outport 2 lat 1
	 connected to node 103 at outport 3 lat 1
router 26 radix 8
	 connected to node 104 at outport 0 lat 1
	 connected to node 105 at outport 1 lat 1
	 connected to node 106 at outport 2 lat 1
	 connected to node 107 at outport 3 lat 1
router 27 radix 7
	 connected to node 108 at outport 0 lat 1
	 connected to node 109 at outport 1 lat 1
	 connected to node 110 at outport 2 lat 1
	 connected to node 111 at outport 3 lat 1
router 28 radix 7
	 connected to node 112 at outport 0 lat 1
	 connected to node 113 at outport 1 lat 1
	 connected to node 114 at outport 2 lat 1
	 connected to node 115 at outport 3 lat 1
router 29 radix 8
	 connected to node 116 at outport 0 lat 1
	 connected to node 117 at outport 1 lat 1
	 connected to node 118 at outport 2 lat 1
	 connected to node 119 at outport 3 lat 1
router 30 radix 8
	 connected to node 120 at outport 0 lat 1
	 connected to node 121 at outport 1 lat 1
	 connected to node 122 at outport 2 lat 1
	 connected to node 123 at outport 3 lat 1
router 31 radix 8
	 connected to node 124 at outport 0 lat 1
	 connected to node 125 at outport 1 lat 1
	 connected to node 126 at outport 2 lat 1
	 connected to node 127 at outport 3 lat 1
router 32 radix 8
	 connected to node 128 at outport 0 lat 1
	 connected to node 129 at outport 1 lat 1
	 connected to node 130 at outport 2 lat 1
	 connected to node 131 at outport 3 lat 1
router 33 radix 8
	 connected to node 132 at outport 0 lat 1
	 connected to node 133 at outport 1 lat 1
	 connected to node 134 at outport 2 lat 1
	 connected to node 135 at outport 3 lat 1
router 34 radix 7
	 connected to node 136 at outport 0 lat 1
	 connected to node 137 at outport 1 lat 1
	 connected to node 138 at outport 2 lat 1
	 connected to node 139 at outport 3 lat 1
router 35 radix 6
	 connected to node 140 at outport 0 lat 1
	 connected to node 141 at outport 1 lat 1
	 connected to node 142 at outport 2 lat 1
	 connected to node 143 at outport 3 lat 1
router 36 radix 7
	 connected to node 144 at outport 0 lat 1
	 connected to node 145 at outport 1 lat 1
	 connected to node 146 at outport 2 lat 1
	 connected to node 147 at outport 3 lat 1
router 37 radix 7
	 connected to node 148 at outport 0 lat 1
	 connected to node 149 at outport 1 lat 1
	 connected to node 150 at outport 2 lat 1
	 connected to node 151 at outport 3 lat 1
router 38 radix 7
	 connected to node 152 at outport 0 lat 1
	 connected to node 153 at outport 1 lat 1
	 connected to node 154 at outport 2 lat 1
	 connected to node 155 at outport 3 lat 1
router 39 radix 7
	 connected to node 156 at outport 0 lat 1
	 connected to node 157 at outport 1 lat 1
	 connected to node 158 at outport 2 lat 1
	 connected to node 159 at outport 3 lat 1
router 40 radix 7
	 connected to node 160 at outport 0 lat 1
	 connected to node 161 at outport 1 lat 1
	 connected to node 162 at outport 2 lat 1
	 connected to node 163 at outport 3 lat 1
router 41 radix 6
	 connected to node 164 at outport 0 lat 1
	 connected to node 165 at outport 1 lat 1
	 connected to node 166 at outport 2 lat 1
	 connected to node 167 at outport 3 lat 1
==========================Router to Router =====================
router 0
	 connected to router 1 using link 0 at outport 4 lat 2
	 connected to router 7 using link 1 at outport 5 lat 2
router 1
	 connected to router 0 using link 2 at outport 5 lat 2
	 connected to router 2 using link 3 at outport 6 lat 2
	 connected to router 8 using link 4 at outport 7 lat 2
router 2
	 connected to router 1 using link 5 at outport 5 lat 2
	 connected to router 3 using link 6 at outport 6 lat 2
	 connected to router 9 using link 7 at outport 7 lat 2
router 3
	 connected to router 2 using link 8 at outport 4 lat 2
	 connected to router 4 using link 9 at outport 5 lat 2
	 connected to router 10 using link 10 at outport 6 lat 2
router 4
	 connected to router 3 using link 11 at outport 5 lat 2
	 connected to router 5 using link 12 at outport 6 lat 2
	 connected to router 11 using link 13 at outport 7 lat 2
router 5
	 connected to router 4 using link 14 at outport 5 lat 2
	 connected to router 6 using link 15 at outport 6 lat 2
	 connected to router 12 using link 16 at outport 7 lat 2
router 6
	 connected to router 5 using link 17 at outport 4 lat 2
	 connected to router 13 using link 18 at outport 5 lat 2
router 7
	 connected to router 0 using link 19 at outport 4 lat 2
	 connected to router 8 using link 20 at outport 5 lat 2
	 connected to router 14 using link 21 at outport 6 lat 2
router 8
	 connected to router 1 using link 22 at outport 4 lat 2
	 connected to router 7 using link 23 at outport 5 lat 2
	 connected to router 9 using link 24 at outport 6 lat 2
	 connected to router 15 using link 25 at outport 7 lat 2
router 9
	 connected to router 2 using link 26 at outport 4 lat 2
	 connected to router 8 using link 27 at outport 5 lat 2
	 connected to router 10 using link 28 at outport 6 lat 2
	 connected to router 16 using link 29 at outport 7 lat 2
router 10
	 connected to router 3 using link 30 at outport 4 lat 2
	 connected to router 9 using link 31 at outport 5 lat 2
	 connected to router 11 using link 32 at outport 6 lat 2
	 connected to router 17 using link 33 at outport 7 lat 2
router 11
	 connected to router 4 using link 34 at outport 4 lat 2
	 connected to router 10 using link 35 at outport 5 lat 2
	 connected to router 12 using link 36 at outport 6 lat 2
	 connected to router 18 using link 37 at outport 7 lat 2
router 12
	 connected to router 5 using link 38 at outport 4 lat 2
	 connected to router 11 using link 39 at outport 5 lat 2
	 connected to router 13 using link 40 at outport 6 lat 2
	 connected to router 19 using link 41 at outport 7 lat 2
router 13
	 connected to router 6 using link 42 at outport 4 lat 2
	 connected to router 12 using link 43 at outport 5 lat 2
	 connected to router 20 using link 44 at outport 6 lat 2
router 14
	 connected to router 7 using link 45 at outport 4 lat 2
	 connected to router 15 using link 46 at outport 5 lat 2
	 connected to router 21 using link 47 at outport 6 lat 2
router 15
	 connected to router 8 using link 48 at outport 4 lat 2
	 connected to router 14 using link 49 at outport 5 lat 2
	 connected to router 16 using link 50 at outport 6 lat 2
	 connected to router 22 using link 51 at outport 7 lat 2
router 16
	 connected to router 9 using link 52 at outport 4 lat 2
	 connected to router 15 using link 53 at outport 5 lat 2
	 connected to router 17 using link 54 at outport 6 lat 2
	 connected to router 23 using link 55 at outport 7 lat 2
router 17
	 connected to router 10 using link 56 at outport 4 lat 2
	 connected to router 16 using link 57 at outport 5 lat 2
	 connected to router 18 using link 58 at outport 6 lat 2
	 connected to router 24 using link 59 at outport 7 lat 2
router 18
	 connected to router 11 using link 60 at outport 4 lat 2
	 connected to router 17 using link 61 at outport 5 lat 2
	 connected to router 19 using link 62 at outport 6 lat 2
	 connected to router 25 using link 63 at outport 7 lat 2
router 19
	 connected to router 12 using link 64 at outport 4 lat 2
	 connected to router 18 using link 65 at outport 5 lat 2
	 connected to router 20 using link 66 at outport 6 lat 2
	 connected to router 26 using link 67 at outport 7 lat 2
router 20
	 connected to router 13 using link 68 at outport 4 lat 2
	 connected to router 19 using link 69 at outport 5 lat 2
	 connected to router 27 using link 70 at outport 6 lat 2
router 21
	 connected to router 14 using link 71 at outport 4 lat 2
	 connected to router 22 using link 72 at outport 5 lat 2
	 connected to router 28 using link 73 at outport 6 lat 2
router 22
	 connected to router 15 using link 74 at outport 4 lat 2
	 connected to router 21 using link 75 at outport 5 lat 2
	 connected to router 23 using link 76 at outport 6 lat 2
	 connected to router 29 using link 77 at outport 7 lat 2
router 23
	 connected to router 16 using link 78 at outport 4 lat 2
	 connected to router 22 using link 79 at outport 5 lat 2
	 connected to router 24 using link 80 at outport 6 lat 2
	 connected to router 30 using link 81 at outport 7 lat 2
router 24
	 connected to router 17 using link 82 at outport 4 lat 2
	 connected to router 23 using link 83 at outport 5 lat 2
	 connected to router 25 using link 84 at outport 6 lat 2
	 connected to router 31 using link 85 at outport 7 lat 2
router 25
	 connected to router 18 using link 86 at outport 4 lat 2
	 connected to router 24 using link 87 at outport 5 lat 2
	 connected to router 26 using link 88 at outport 6 lat 2
	 connected to router 32 using link 89 at outport 7 lat 2
router 26
	 connected to router 19 using link 90 at outport 4 lat 2
	 connected to router 25 using link 91 at outport 5 lat 2
	 connected to router 27 using link 92 at outport 6 lat 2
	 connected to router 33 using link 93 at outport 7 lat 2
router 27
	 connected to router 20 using link 94 at outport 4 lat 2
	 connected to router 26 using link 95 at outport 5 lat 2
	 connected to router 34 using link 96 at outport 6 lat 2
router 28
	 connected to router 21 using link 97 at outport 4 lat 2
	 connected to router 29 using link 98 at outport 5 lat 2
	 connected to router 35 using link 99 at outport 6 lat 2
router 29
	 connected to router 22 using link 100 at outport 4 lat 2
	 connected to router 28 using link 101 at outport 5 lat 2
	 connected to router 30 using link 102 at outport 6 lat 2
	 connected to router 36 using link 103 at outport 7 lat 2
router 30
	 connected to router 23 using link 104 at outport 4 lat 2
	 connected to router 29 using link 105 at outport 5 lat 2
	 connected to router 31 using link 106 at outport 6 lat 2
	 connected to router 37 using link 107 at outport 7 lat 2
router 31
	 connected to router 24 using link 108 at outport 4 lat 2
	 connected to router 30 using link 109 at outport 5 lat 2
	 connected to router 32 using link 110 at outport 6 lat 2
	 connected to router 38 using link 111 at outport 7 lat 2
router 32
	 connected to router 25 using link 112 at outport 4 lat 2
	 connected to router 31 using link 113 at outport 5 lat 2
	 connected to router 33 using link 114 at outport 6 lat 2
	 connected to router 39 using link 115 at outport 7 lat 2
router 33
	 connected to router 26 using link 116 at outport 4 lat 2
	 connected to router 32 using link 117 at outport 5 lat 2
	 connected to router 34 using link 118 at outport 6 lat 2
	 connected to router 40 using link 119 at outport 7 lat 2
router 34
	 connected to router 27 using link 120 at outport 4 lat 2
	 connected to router 33 using link 121 at outport 5 lat 2
	 connected to router 41 using link 122 at outport 6 lat 2
router 35
	 connected to router 28 using link 123 at outport 4 lat 2
	 connected to router 36 using link 124 at outport 5 lat 2
router 36
	 connected to router 29 using link 125 at outport 4 lat 2
	 connected to router 35 using link 126 at outport 5 lat 2
	 connected to router 37 using link 127 at outport 6 lat 2
router 37
	 connected to router 30 using link 128 at outport 4 lat 2
	 connected to router 36 using link 129 at outport 5 lat 2
	 connected to router 38 using link 130 at outport 6 lat 2
router 38
	 connected to router 31 using link 131 at outport 4 lat 2
	 connected to router 37 using link 132 at outport 5 lat 2
	 connected to router 39 using link 133 at outport 6 lat 2
router 39
	 connected to router 32 using link 134 at outport 4 lat 2
	 connected to router 38 using link 135 at outport 5 lat 2
	 connected to router 40 using link 136 at outport 6 lat 2
router 40
	 connected to router 33 using link 137 at outport 4 lat 2
	 connected to router 39 using link 138 at outport 5 lat 2
	 connected to router 41 using link 139 at outport 6 lat 2
router 41
	 connected to router 34 using link 140 at outport 4 lat 2
	 connected to router 40 using link 141 at outport 5 lat 2
========================== Routing table  =====================
AnyNet: using XY dimension-order routing (cols=7)
========================Network File Parsed=================
******************node listing**********************
Node 0	Router 0
Node 1	Router 0
Node 2	Router 0
Node 3	Router 0
Node 4	Router 1
Node 5	Router 1
Node 6	Router 1
Node 7	Router 1
Node 8	Router 2
Node 9	Router 2
Node 10	Router 2
Node 11	Router 2
Node 12	Router 3
Node 13	Router 3
Node 14	Router 3
Node 15	Router 3
Node 16	Router 4
Node 17	Router 4
Node 18	Router 4
Node 19	Router 4
Node 20	Router 5
Node 21	Router 5
Node 22	Router 5
Node 23	Router 5
Node 24	Router 6
Node 25	Router 6
Node 26	Router 6
Node 27	Router 6
Node 28	Router 7
Node 29	Router 7
Node 30	Router 7
Node 31	Router 7
Node 32	Router 8
Node 33	Router 8
Node 34	Router 8
Node 35	Router 8
Node 36	Router 9
Node 37	Router 9
Node 38	Router 9
Node 39	Router 9
Node 40	Router 10
Node 41	Router 10
Node 42	Router 10
Node 43	Router 10
Node 44	Router 11
Node 45	Router 11
Node 46	Router 11
Node 47	Router 11
Node 48	Router 12
Node 49	Router 12
Node 50	Router 12
Node 51	Router 12
Node 52	Router 13
Node 53	Router 13
Node 54	Router 13
Node 55	Router 13
Node 56	Router 14
Node 57	Router 14
Node 58	Router 14
Node 59	Router 14
Node 60	Router 15
Node 61	Router 15
Node 62	Router 15
Node 63	Router 15
Node 64	Router 16
Node 65	Router 16
Node 66	Router 16
Node 67	Router 16
Node 68	Router 17
Node 69	Router 17
Node 70	Router 17
Node 71	Router 17
Node 72	Router 18
Node 73	Router 18
Node 74	Router 18
Node 75	Router 18
Node 76	Router 19
Node 77	Router 19
Node 78	Router 19
Node 79	Router 19
Node 80	Router 20
Node 81	Router 20
Node 82	Router 20
Node 83	Router 20
Node 84	Router 21
Node 85	Router 21
Node 86	Router 21
Node 87	Router 21
Node 88	Router 22
Node 89	Router 22
Node 90	Router 22
Node 91	Router 22
Node 92	Router 23
Node 93	Router 23
Node 94	Router 23
Node 95	Router 23
Node 96	Router 24
Node 97	Router 24
Node 98	Router 24
Node 99	Router 24
Node 100	Router 25
Node 101	Router 25
Node 102	Router 25
Node 103	Router 25
Node 104	Router 26
Node 105	Router 26
Node 106	Router 26
Node 107	Router 26
Node 108	Router 27
Node 109	Router 27
Node 110	Router 27
Node 111	Router 27
Node 112	Router 28
Node 113	Router 28
Node 114	Router 28
Node 115	Router 28
Node 116	Router 29
Node 117	Router 29
Node 118	Router 29
Node 119	Router 29
Node 120	Router 30
Node 121	Router 30
Node 122	Router 30
Node 123	Router 30
Node 124	Router 31
Node 125	Router 31
Node 126	Router 31
Node 127	Router 31
Node 128	Router 32
Node 129	Router 32
Node 130	Router 32
Node 131	Router 32
Node 132	Router 33
Node 133	Router 33
Node 134	Router 33
Node 135	Router 33
Node 136	Router 34
Node 137	Router 34
Node 138	Router 34
Node 139	Router 34
Node 140	Router 35
Node 141	Router 35
Node 142	Router 35
Node 143	Router 35
Node 144	Router 36
Node 145	Router 36
Node 146	Router 36
Node 147	Router 36
Node 148	Router 37
Node 149	Router 37
Node 150	Router 37
Node 151	Router 37
Node 152	Router 38
Node 153	Router 38
Node 154	Router 38
Node 155	Router 38
Node 156	Router 39
Node 157	Router 39
Node 158	Router 39
Node 159	Router 39
Node 160	Router 40
Node 161	Router 40
Node 162	Router 40
Node 163	Router 40
Node 164	Router 41
Node 165	Router 41
Node 166	Router 41
Node 167	Router 41
Node 168	Router 1
Node 169	Router 2
Node 170	Router 4
Node 171	Router 5

****************router to node listing*************
Router 0
	 Node 0 lat 1
	 Node 1 lat 1
	 Node 2 lat 1
	 Node 3 lat 1
Router 1
	 Node 4 lat 1
	 Node 5 lat 1
	 Node 6 lat 1
	 Node 7 lat 1
	 Node 168 lat 1
Router 2
	 Node 8 lat 1
	 Node 9 lat 1
	 Node 10 lat 1
	 Node 11 lat 1
	 Node 169 lat 1
Router 3
	 Node 12 lat 1
	 Node 13 lat 1
	 Node 14 lat 1
	 Node 15 lat 1
Router 4
	 Node 16 lat 1
	 Node 17 lat 1
	 Node 18 lat 1
	 Node 19 lat 1
	 Node 170 lat 1
Router 5
	 Node 20 lat 1
	 Node 21 lat 1
	 Node 22 lat 1
	 Node 23 lat 1
	 Node 171 lat 1
Router 6
	 Node 24 lat 1
	 Node 25 lat 1
	 Node 26 lat 1
	 Node 27 lat 1
Router 7
	 Node 28 lat 1
	 Node 29 lat 1
	 Node 30 lat 1
	 Node 31 lat 1
Router 8
	 Node 32 lat 1
	 Node 33 lat 1
	 Node 34 lat 1
	 Node 35 lat 1
Router 9
	 Node 36 lat 1
	 Node 37 lat 1
	 Node 38 lat 1
	 Node 39 lat 1
Router 10
	 Node 40 lat 1
	 Node 41 lat 1
	 Node 42 lat 1
	 Node 43 lat 1
Router 11
	 Node 44 lat 1
	 Node 45 lat 1
	 Node 46 lat 1
	 Node 47 lat 1
Router 12
	 Node 48 lat 1
	 Node 49 lat 1
	 Node 50 lat 1
	 Node 51 lat 1
Router 13
	 Node 52 lat 1
	 Node 53 lat 1
	 Node 54 lat 1
	 Node 55 lat 1
Router 14
	 Node 56 lat 1
	 Node 57 lat 1
	 Node 58 lat 1
	 Node 59 lat 1
Router 15
	 Node 60 lat 1
	 Node 61 lat 1
	 Node 62 lat 1
	 Node 63 lat 1
Router 16
	 Node 64 lat 1
	 Node 65 lat 1
	 Node 66 lat 1
	 Node 67 lat 1
Router 17
	 Node 68 lat 1
	 Node 69 lat 1
	 Node 70 lat 1
	 Node 71 lat 1
Router 18
	 Node 72 lat 1
	 Node 73 lat 1
	 Node 74 lat 1
	 Node 75 lat 1
Router 19
	 Node 76 lat 1
	 Node 77 lat 1
	 Node 78 lat 1
	 Node 79 lat 1
Router 20
	 Node 80 lat 1
	 Node 81 lat 1
	 Node 82 lat 1
	 Node 83 lat 1
Router 21
	 Node 84 lat 1
	 Node 85 lat 1
	 Node 86 lat 1
	 Node 87 lat 1
Router 22
	 Node 88 lat 1
	 Node 89 lat 1
	 Node 90 lat 1
	 Node 91 lat 1
Router 23
	 Node 92 lat 1
	 Node 93 lat 1
	 Node 94 lat 1
	 Node 95 lat 1
Router 24
	 Node 96 lat 1
	 Node 97 lat 1
	 Node 98 lat 1
	 Node 99 lat 1
Router 25
	 Node 100 lat 1
	 Node 101 lat 1
	 Node 102 lat 1
	 Node 103 lat 1
Router 26
	 Node 104 lat 1
	 Node 105 lat 1
	 Node 106 lat 1
	 Node 107 lat 1
Router 27
	 Node 108 lat 1
	 Node 109 lat 1
	 Node 110 lat 1
	 Node 111 lat 1
Router 28
	 Node 112 lat 1
	 Node 113 lat 1
	 Node 114 lat 1
	 Node 115 lat 1
Router 29
	 Node 116 lat 1
	 Node 117 lat 1
	 Node 118 lat 1
	 Node 119 lat 1
Router 30
	 Node 120 lat 1
	 Node 121 lat 1
	 Node 122 lat 1
	 Node 123 lat 1
Router 31
	 Node 124 lat 1
	 Node 125 lat 1
	 Node 126 lat 1
	 Node 127 lat 1
Router 32
	 Node 128 lat 1
	 Node 129 lat 1
	 Node 130 lat 1
	 Node 131 lat 1
Router 33
	 Node 132 lat 1
	 Node 133 lat 1
	 Node 134 lat 1
	 Node 135 lat 1
Router 34
	 Node 136 lat 1
	 Node 137 lat 1
	 Node 138 lat 1
	 Node 139 lat 1
Router 35
	 Node 140 lat 1
	 Node 141 lat 1
	 Node 142 lat 1
	 Node 143 lat 1
Router 36
	 Node 144 lat 1
	 Node 145 lat 1
	 Node 146 lat 1
	 Node 147 lat 1
Router 37
	 Node 148 lat 1
	 Node 149 lat 1
	 Node 150 lat 1
	 Node 151 lat 1
Router 38
	 Node 152 lat 1
	 Node 153 lat 1
	 Node 154 lat 1
	 Node 155 lat 1
Router 39
	 Node 156 lat 1
	 Node 157 lat 1
	 Node 158 lat 1
	 Node 159 lat 1
Router 40
	 Node 160 lat 1
	 Node 161 lat 1
	 Node 162 lat 1
	 Node 163 lat 1
Router 41
	 Node 164 lat 1
	 Node 165 lat 1
	 Node 166 lat 1
	 Node 167 lat 1

*****************router to router listing************
Router 0
	 Router 1 lat 2
	 Router 7 lat 2
Router 1
	 Router 0 lat 2
	 Router 2 lat 2
	 Router 8 lat 2
Router 2
	 Router 1 lat 2
	 Router 3 lat 2
	 Router 9 lat 2
Router 3
	 Router 2 lat 2
	 Router 4 lat 2
	 Router 10 lat 2
Router 4
	 Router 3 lat 2
	 Router 5 lat 2
	 Router 11 lat 2
Router 5
	 Router 4 lat 2
	 Router 6 lat 2
	 Router 12 lat 2
Router 6
	 Router 5 lat 2
	 Router 13 lat 2
Router 7
	 Router 0 lat 2
	 Router 8 lat 2
	 Router 14 lat 2
Router 8
	 Router 1 lat 2
	 Router 7 lat 2
	 Router 9 lat 2
	 Router 15 lat 2
Router 9
	 Router 2 lat 2
	 Router 8 lat 2
	 Router 10 lat 2
	 Router 16 lat 2
Router 10
	 Router 3 lat 2
	 Router 9 lat 2
	 Router 11 lat 2
	 Router 17 lat 2
Router 11
	 Router 4 lat 2
	 Router 10 lat 2
	 Router 12 lat 2
	 Router 18 lat 2
Router 12
	 Router 5 lat 2
	 Router 11 lat 2
	 Router 13 lat 2
	 Router 19 lat 2
Router 13
	 Router 6 lat 2
	 Router 12 lat 2
	 Router 20 lat 2
Router 14
	 Router 7 lat 2
	 Router 15 lat 2
	 Router 21 lat 2
Router 15
	 Router 8 lat 2
	 Router 14 lat 2
	 Router 16 lat 2
	 Router 22 lat 2
Router 16
	 Router 9 lat 2
	 Router 15 lat 2
	 Router 17 lat 2
	 Router 23 lat 2
Router 17
	 Router 10 lat 2
	 Router 16 lat 2
	 Router 18 lat 2
	 Router 24 lat 2
Router 18
	 Router 11 lat 2
	 Router 17 lat 2
	 Router 19 lat 2
	 Router 25 lat 2
Router 19
	 Router 12 lat 2
	 Router 18 lat 2
	 Router 20 lat 2
	 Router 26 lat 2
Router 20
	 Router 13 lat 2
	 Router 19 lat 2
	 Router 27 lat 2
Router 21
	 Router 14 lat 2
	 Router 22 lat 2
	 Router 28 lat 2
Router 22
	 Router 15 lat 2
	 Router 21 lat 2
	 Router 23 lat 2
	 Router 29 lat 2
Router 23
	 Router 16 lat 2
	 Router 22 lat 2
	 Router 24 lat 2
	 Router 30 lat 2
Router 24
	 Router 17 lat 2
	 Router 23 lat 2
	 Router 25 lat 2
	 Router 31 lat 2
Router 25
	 Router 18 lat 2
	 Router 24 lat 2
	 Router 26 lat 2
	 Router 32 lat 2
Router 26
	 Router 19 lat 2
	 Router 25 lat 2
	 Router 27 lat 2
	 Router 33 lat 2
Router 27
	 Router 20 lat 2
	 Router 26 lat 2
	 Router 34 lat 2
Router 28
	 Router 21 lat 2
	 Router 29 lat 2
	 Router 35 lat 2
Router 29
	 Router 22 lat 2
	 Router 28 lat 2
	 Router 30 lat 2
	 Router 36 lat 2
Router 30
	 Router 23 lat 2
	 Router 29 lat 2
	 Router 31 lat 2
	 Router 37 lat 2
Router 31
	 Router 24 lat 2
	 Router 30 lat 2
	 Router 32 lat 2
	 Router 38 lat 2
Router 32
	 Router 25 lat 2
	 Router 31 lat 2
	 Router 33 lat 2
	 Router 39 lat 2
Router 33
	 Router 26 lat 2
	 Router 32 lat 2
	 Router 34 lat 2
	 Router 40 lat 2
Router 34
	 Router 27 lat 2
	 Router 33 lat 2
	 Router 41 lat 2
Router 35
	 Router 28 lat 2
	 Router 36 lat 2
Router 36
	 Router 29 lat 2
	 Router 35 lat 2
	 Router 37 lat 2
Router 37
	 Router 30 lat 2
	 Router 36 lat 2
	 Router 38 lat 2
Router 38
	 Router 31 lat 2
	 Router 37 lat 2
	 Router 39 lat 2
Router 39
	 Router 32 lat 2
	 Router 38 lat 2
	 Router 40 lat 2
Router 40
	 Router 33 lat 2
	 Router 39 lat 2
	 Router 41 lat 2
Router 41
	 Router 34 lat 2
	 Router 40 lat 2
==========================Node to Router =====================
router 0 radix 6
	 connected to node 0 at outport 0 lat 1
	 connected to node 1 at outport 1 lat 1
	 connected to node 2 at outport 2 lat 1
	 connected to node 3 at outport 3 lat 1
router 1 radix 8
	 connected to node 4 at outport 0 lat 1
	 connected to node 5 at outport 1 lat 1
	 connected to node 6 at outport 2 lat 1
	 connected to node 7 at outport 3 lat 1
	 connected to node 168 at outport 4 lat 1
router 2 radix 8
	 connected to node 8 at outport 0 lat 1
	 connected to node 9 at outport 1 lat 1
	 connected to node 10 at outport 2 lat 1
	 connected to node 11 at outport 3 lat 1
	 connected to node 169 at outport 4 lat 1
router 3 radix 7
	 connected to node 12 at outport 0 lat 1
	 connected to node 13 at outport 1 lat 1
	 connected to node 14 at outport 2 lat 1
	 connected to node 15 at outport 3 lat 1
router 4 radix 8
	 connected to node 16 at outport 0 lat 1
	 connected to node 17 at outport 1 lat 1
	 connected to node 18 at outport 2 lat 1
	 connected to node 19 at outport 3 lat 1
	 connected to node 170 at outport 4 lat 1
router 5 radix 8
	 connected to node 20 at outport 0 lat 1
	 connected to node 21 at outport 1 lat 1
	 connected to node 22 at outport 2 lat 1
	 connected to node 23 at outport 3 lat 1
	 connected to node 171 at outport 4 lat 1
router 6 radix 6
	 connected to node 24 at outport 0 lat 1
	 connected to node 25 at outport 1 lat 1
	 connected to node 26 at outport 2 lat 1
	 connected to node 27 at outport 3 lat 1
router 7 radix 7
	 connected to node 28 at outport 0 lat 1
	 connected to node 29 at outport 1 lat 1
	 connected to node 30 at outport 2 lat 1
	 connected to node 31 at outport 3 lat 1
router 8 radix 8
	 connected to node 32 at outport 0 lat 1
	 connected to node 33 at outport 1 lat 1
	 connected to node 34 at outport 2 lat 1
	 connected to node 35 at outport 3 lat 1
router 9 radix 8
	 connected to node 36 at outport 0 lat 1
	 connected to node 37 at outport 1 lat 1
	 connected to node 38 at outport 2 lat 1
	 connected to node 39 at outport 3 lat 1
router 10 radix 8
	 connected to node 40 at outport 0 lat 1
	 connected to node 41 at outport 1 lat 1
	 connected to node 42 at outport 2 lat 1
	 connected to node 43 at outport 3 lat 1
router 11 radix 8
	 connected to node 44 at outport 0 lat 1
	 connected to node 45 at outport 1 lat 1
	 connected to node 46 at outport 2 lat 1
	 connected to node 47 at outport 3 lat 1
router 12 radix 8
	 connected to node 48 at outport 0 lat 1
	 connected to node 49 at outport 1 lat 1
	 connected to node 50 at outport 2 lat 1
	 connected to node 51 at outport 3 lat 1
router 13 radix 7
	 connected to node 52 at outport 0 lat 1
	 connected to node 53 at outport 1 lat 1
	 connected to node 54 at outport 2 lat 1
	 connected to node 55 at outport 3 lat 1
router 14 radix 7
	 connected to node 56 at outport 0 lat 1
	 connected to node 57 at outport 1 lat 1
	 connected to node 58 at outport 2 lat 1
	 connected to node 59 at outport 3 lat 1
router 15 radix 8
	 connected to node 60 at outport 0 lat 1
	 connected to node 61 at outport 1 lat 1
	 connected to node 62 at outport 2 lat 1
	 connected to node 63 at outport 3 lat 1
router 16 radix 8
	 connected to node 64 at outport 0 lat 1
	 connected to node 65 at outport 1 lat 1
	 connected to node 66 at outport 2 lat 1
	 connected to node 67 at outport 3 lat 1
router 17 radix 8
	 connected to node 68 at outport 0 lat 1
	 connected to node 69 at outport 1 lat 1
	 connected to node 70 at outport 2 lat 1
	 connected to node 71 at outport 3 lat 1
router 18 radix 8
	 connected to node 72 at outport 0 lat 1
	 connected to node 73 at outport 1 lat 1
	 connected to node 74 at outport 2 lat 1
	 connected to node 75 at outport 3 lat 1
router 19 radix 8
	 connected to node 76 at outport 0 lat 1
	 connected to node 77 at outport 1 lat 1
	 connected to node 78 at outport 2 lat 1
	 connected to node 79 at outport 3 lat 1
router 20 radix 7
	 connected to node 80 at outport 0 lat 1
	 connected to node 81 at outport 1 lat 1
	 connected to node 82 at outport 2 lat 1
	 connected to node 83 at outport 3 lat 1
router 21 radix 7
	 connected to node 84 at outport 0 lat 1
	 connected to node 85 at outport 1 lat 1
	 connected to node 86 at outport 2 lat 1
	 connected to node 87 at outport 3 lat 1
router 22 radix 8
	 connected to node 88 at outport 0 lat 1
	 connected to node 89 at outport 1 lat 1
	 connected to node 90 at outport 2 lat 1
	 connected to node 91 at outport 3 lat 1
router 23 radix 8
	 connected to node 92 at outport 0 lat 1
	 connected to node 93 at outport 1 lat 1
	 connected to node 94 at outport 2 lat 1
	 connected to node 95 at outport 3 lat 1
router 24 radix 8
	 connected to node 96 at outport 0 lat 1
	 connected to node 97 at outport 1 lat 1
	 connected to node 98 at outport 2 lat 1
	 connected to node 99 at outport 3 lat 1
router 25 radix 8
	 connected to node 100 at outport 0 lat 1
	 connected to node 101 at outport 1 lat 1
	 connected to node 102 at outport 2 lat 1
	 connected to node 103 at outport 3 lat 1
router 26 radix 8
	 connected to node 104 at outport 0 lat 1
	 connected to node 105 at outport 1 lat 1
	 connected to node 106 at outport 2 lat 1
	 connected to node 107 at outport 3 lat 1
router 27 radix 7
	 connected to node 108 at outport 0 lat 1
	 connected to node 109 at outport 1 lat 1
	 connected to node 110 at outport 2 lat 1
	 connected to node 111 at outport 3 lat 1
router 28 radix 7
	 connected to node 112 at outport 0 lat 1
	 connected to node 113 at outport 1 lat 1
	 connected to node 114 at outport 2 lat 1
	 connected to node 115 at outport 3 lat 1
router 29 radix 8
	 connected to node 116 at outport 0 lat 1
	 connected to node 117 at outport 1 lat 1
	 connected to node 118 at outport 2 lat 1
	 connected to node 119 at outport 3 lat 1
router 30 radix 8
	 connected to node 120 at outport 0 lat 1
	 connected to node 121 at outport 1 lat 1
	 connected to node 122 at outport 2 lat 1
	 connected to node 123 at outport 3 lat 1
router 31 radix 8
	 connected to node 124 at outport 0 lat 1
	 connected to node 125 at outport 1 lat 1
	 connected to node 126 at outport 2 lat 1
	 connected to node 127 at outport 3 lat 1
router 32 radix 8
	 connected to node 128 at outport 0 lat 1
	 connected to node 129 at outport 1 lat 1
	 connected to node 130 at outport 2 lat 1
	 connected to node 131 at outport 3 lat 1
router 33 radix 8
	 connected to node 132 at outport 0 lat 1
	 connected to node 133 at outport 1 lat 1
	 connected to node 134 at outport 2 lat 1
	 connected to node 135 at outport 3 lat 1
router 34 radix 7
	 connected to node 136 at outport 0 lat 1
	 connected to node 137 at outport 1 lat 1
	 connected to node 138 at outport 2 lat 1
	 connected to node 139 at outport 3 lat 1
router 35 radix 6
	 connected to node 140 at outport 0 lat 1
	 connected to node 141 at outport 1 lat 1
	 connected to node 142 at outport 2 lat 1
	 connected to node 143 at outport 3 lat 1
router 36 radix 7
	 connected to node 144 at outport 0 lat 1
	 connected to node 145 at outport 1 lat 1
	 connected to node 146 at outport 2 lat 1
	 connected to node 147 at outport 3 lat 1
router 37 radix 7
	 connected to node 148 at outport 0 lat 1
	 connected to node 149 at outport 1 lat 1
	 connected to node 150 at outport 2 lat 1
	 connected to node 151 at outport 3 lat 1
router 38 radix 7
	 connected to node 152 at outport 0 lat 1
	 connected to node 153 at outport 1 lat 1
	 connected to node 154 at outport 2 lat 1
	 connected to node 155 at outport 3 lat 1
router 39 radix 7
	 connected to node 156 at outport 0 lat 1
	 connected to node 157 at outport 1 lat 1
	 connected to node 158 at outport 2 lat 1
	 connected to node 159 at outport 3 lat 1
router 40 radix 7
	 connected to node 160 at outport 0 lat 1
	 connected to node 161 at outport 1 lat 1
	 connected to node 162 at outport 2 lat 1
	 connected to node 163 at outport 3 lat 1
router 41 radix 6
	 connected to node 164 at outport 0 lat 1
	 connected to node 165 at outport 1 lat 1
	 connected to node 166 at outport 2 lat 1
	 connected to node 167 at outport 3 lat 1
==========================Router to Router =====================
router 0
	 connected to router 1 using link 0 at outport 4 lat 2
	 connected to router 7 using link 1 at outport 5 lat 2
router 1
	 connected to router 0 using link 2 at outport 5 lat 2
	 connected to router 2 using link 3 at outport 6 lat 2
	 connected to router 8 using link 4 at outport 7 lat 2
router 2
	 connected to router 1 using link 5 at outport 5 lat 2
	 connected to router 3 using link 6 at outport 6 lat 2
	 connected to router 9 using link 7 at outport 7 lat 2
router 3
	 connected to router 2 using link 8 at outport 4 lat 2
	 connected to router 4 using link 9 at outport 5 lat 2
	 connected to router 10 using link 10 at outport 6 lat 2
router 4
	 connected to router 3 using link 11 at outport 5 lat 2
	 connected to router 5 using link 12 at outport 6 lat 2
	 connected to router 11 using link 13 at outport 7 lat 2
router 5
	 connected to router 4 using link 14 at outport 5 lat 2
	 connected to router 6 using link 15 at outport 6 lat 2
	 connected to router 12 using link 16 at outport 7 lat 2
router 6
	 connected to router 5 using link 17 at outport 4 lat 2
	 connected to router 13 using link 18 at outport 5 lat 2
router 7
	 connected to router 0 using link 19 at outport 4 lat 2
	 connected to router 8 using link 20 at outport 5 lat 2
	 connected to router 14 using link 21 at outport 6 lat 2
router 8
	 connected to router 1 using link 22 at outport 4 lat 2
	 connected to router 7 using link 23 at outport 5 lat 2
	 connected to router 9 using link 24 at outport 6 lat 2
	 connected to router 15 using link 25 at outport 7 lat 2
router 9
	 connected to router 2 using link 26 at outport 4 lat 2
	 connected to router 8 using link 27 at outport 5 lat 2
	 connected to router 10 using link 28 at outport 6 lat 2
	 connected to router 16 using link 29 at outport 7 lat 2
router 10
	 connected to router 3 using link 30 at outport 4 lat 2
	 connected to router 9 using link 31 at outport 5 lat 2
	 connected to router 11 using link 32 at outport 6 lat 2
	 connected to router 17 using link 33 at outport 7 lat 2
router 11
	 connected to router 4 using link 34 at outport 4 lat 2
	 connected to router 10 using link 35 at outport 5 lat 2
	 connected to router 12 using link 36 at outport 6 lat 2
	 connected to router 18 using link 37 at outport 7 lat 2
router 12
	 connected to router 5 using link 38 at outport 4 lat 2
	 connected to router 11 using link 39 at outport 5 lat 2
	 connected to router 13 using link 40 at outport 6 lat 2
	 connected to router 19 using link 41 at outport 7 lat 2
router 13
	 connected to router 6 using link 42 at outport 4 lat 2
	 connected to router 12 using link 43 at outport 5 lat 2
	 connected to router 20 using link 44 at outport 6 lat 2
router 14
	 connected to router 7 using link 45 at outport 4 lat 2
	 connected to router 15 using link 46 at outport 5 lat 2
	 connected to router 21 using link 47 at outport 6 lat 2
router 15
	 connected to router 8 using link 48 at outport 4 lat 2
	 connected to router 14 using link 49 at outport 5 lat 2
	 connected to router 16 using link 50 at outport 6 lat 2
	 connected to router 22 using link 51 at outport 7 lat 2
router 16
	 connected to router 9 using link 52 at outport 4 lat 2
	 connected to router 15 using link 53 at outport 5 lat 2
	 connected to router 17 using link 54 at outport 6 lat 2
	 connected to router 23 using link 55 at outport 7 lat 2
router 17
	 connected to router 10 using link 56 at outport 4 lat 2
	 connected to router 16 using link 57 at outport 5 lat 2
	 connected to router 18 using link 58 at outport 6 lat 2
	 connected to router 24 using link 59 at outport 7 lat 2
router 18
	 connected to router 11 using link 60 at outport 4 lat 2
	 connected to router 17 using link 61 at outport 5 lat 2
	 connected to router 19 using link 62 at outport 6 lat 2
	 connected to router 25 using link 63 at outport 7 lat 2
router 19
	 connected to router 12 using link 64 at outport 4 lat 2
	 connected to router 18 using link 65 at outport 5 lat 2
	 connected to router 20 using link 66 at outport 6 lat 2
	 connected to router 26 using link 67 at outport 7 lat 2
router 20
	 connected to router 13 using link 68 at outport 4 lat 2
	 connected to router 19 using link 69 at outport 5 lat 2
	 connected to router 27 using link 70 at outport 6 lat 2
router 21
	 connected to router 14 using link 71 at outport 4 lat 2
	 connected to router 22 using link 72 at outport 5 lat 2
	 connected to router 28 using link 73 at outport 6 lat 2
router 22
	 connected to router 15 using link 74 at outport 4 lat 2
	 connected to router 21 using link 75 at outport 5 lat 2
	 connected to router 23 using link 76 at outport 6 lat 2
	 connected to router 29 using link 77 at outport 7 lat 2
router 23
	 connected to router 16 using link 78 at outport 4 lat 2
	 connected to router 22 using link 79 at outport 5 lat 2
	 connected to router 24 using link 80 at outport 6 lat 2
	 connected to router 30 using link 81 at outport 7 lat 2
router 24
	 connected to router 17 using link 82 at outport 4 lat 2
	 connected to router 23 using link 83 at outport 5 lat 2
	 connected to router 25 using link 84 at outport 6 lat 2
	 connected to router 31 using link 85 at outport 7 lat 2
router 25
	 connected to router 18 using link 86 at outport 4 lat 2
	 connected to router 24 using link 87 at outport 5 lat 2
	 connected to router 26 using link 88 at outport 6 lat 2
	 connected to router 32 using link 89 at outport 7 lat 2
router 26
	 connected to router 19 using link 90 at outport 4 lat 2
	 connected to router 25 using link 91 at outport 5 lat 2
	 connected to router 27 using link 92 at outport 6 lat 2
	 connected to router 33 using link 93 at outport 7 lat 2
router 27
	 connected to router 20 using link 94 at outport 4 lat 2
	 connected to router 26 using link 95 at outport 5 lat 2
	 connected to router 34 using link 96 at outport 6 lat 2
router 28
	 connected to router 21 using link 97 at outport 4 lat 2
	 connected to router 29 using link 98 at outport 5 lat 2
	 connected to router 35 using link 99 at outport 6 lat 2
router 29
	 connected to router 22 using link 100 at outport 4 lat 2
	 connected to router 28 using link 101 at outport 5 lat 2
	 connected to router 30 using link 102 at outport 6 lat 2
	 connected to router 36 using link 103 at outport 7 lat 2
router 30
	 connected to router 23 using link 104 at outport 4 lat 2
	 connected to router 29 using link 105 at outport 5 lat 2
	 connected to router 31 using link 106 at outport 6 lat 2
	 connected to router 37 using link 107 at outport 7 lat 2
router 31
	 connected to router 24 using link 108 at outport 4 lat 2
	 connected to router 30 using link 109 at outport 5 lat 2
	 connected to router 32 using link 110 at outport 6 lat 2
	 connected to router 38 using link 111 at outport 7 lat 2
router 32
	 connected to router 25 using link 112 at outport 4 lat 2
	 connected to router 31 using link 113 at outport 5 lat 2
	 connected to router 33 using link 114 at outport 6 lat 2
	 connected to router 39 using link 115 at outport 7 lat 2
router 33
	 connected to router 26 using link 116 at outport 4 lat 2
	 connected to router 32 using link 117 at outport 5 lat 2
	 connected to router 34 using link 118 at outport 6 lat 2
	 connected to router 40 using link 119 at outport 7 lat 2
router 34
	 connected to router 27 using link 120 at outport 4 lat 2
	 connected to router 33 using link 121 at outport 5 lat 2
	 connected to router 41 using link 122 at outport 6 lat 2
router 35
	 connected to router 28 using link 123 at outport 4 lat 2
	 connected to router 36 using link 124 at outport 5 lat 2
router 36
	 connected to router 29 using link 125 at outport 4 lat 2
	 connected to router 35 using link 126 at outport 5 lat 2
	 connected to router 37 using link 127 at outport 6 lat 2
router 37
	 connected to router 30 using link 128 at outport 4 lat 2
	 connected to router 36 using link 129 at outport 5 lat 2
	 connected to router 38 using link 130 at outport 6 lat 2
router 38
	 connected to router 31 using link 131 at outport 4 lat 2
	 connected to router 37 using link 132 at outport 5 lat 2
	 connected to router 39 using link 133 at outport 6 lat 2
router 39
	 connected to router 32 using link 134 at outport 4 lat 2
	 connected to router 38 using link 135 at outport 5 lat 2
	 connected to router 40 using link 136 at outport 6 lat 2
router 40
	 connected to router 33 using link 137 at outport 4 lat 2
	 connected to router 39 using link 138 at outport 5 lat 2
	 connected to router 41 using link 139 at outport 6 lat 2
router 41
	 connected to router 34 using link 140 at outport 4 lat 2
	 connected to router 40 using link 141 at outport 5 lat 2
========================== Routing table  =====================
AnyNet: using XY dimension-order routing (cols=7)
========================Network File Parsed=================
******************node listing**********************
Node 0	Router 0
Node 1	Router 0
Node 2	Router 0
Node 3	Router 0
Node 4	Router 1
Node 5	Router 1
Node 6	Router 1
Node 7	Router 1
Node 8	Router 2
Node 9	Router 2
Node 10	Router 2
Node 11	Router 2
Node 12	Router 3
Node 13	Router 3
Node 14	Router 3
Node 15	Router 3
Node 16	Router 4
Node 17	Router 4
Node 18	Router 4
Node 19	Router 4
Node 20	Router 5
Node 21	Router 5
Node 22	Router 5
Node 23	Router 5
Node 24	Router 6
Node 25	Router 6
Node 26	Router 6
Node 27	Router 6
Node 28	Router 7
Node 29	Router 7
Node 30	Router 7
Node 31	Router 7
Node 32	Router 8
Node 33	Router 8
Node 34	Router 8
Node 35	Router 8
Node 36	Router 9
Node 37	Router 9
Node 38	Router 9
Node 39	Router 9
Node 40	Router 10
Node 41	Router 10
Node 42	Router 10
Node 43	Router 10
Node 44	Router 11
Node 45	Router 11
Node 46	Router 11
Node 47	Router 11
Node 48	Router 12
Node 49	Router 12
Node 50	Router 12
Node 51	Router 12
Node 52	Router 13
Node 53	Router 13
Node 54	Router 13
Node 55	Router 13
Node 56	Router 14
Node 57	Router 14
Node 58	Router 14
Node 59	Router 14
Node 60	Router 15
Node 61	Router 15
Node 62	Router 15
Node 63	Router 15
Node 64	Router 16
Node 65	Router 16
Node 66	Router 16
Node 67	Router 16
Node 68	Router 17
Node 69	Router 17
Node 70	Router 17
Node 71	Router 17
Node 72	Router 18
Node 73	Router 18
Node 74	Router 18
Node 75	Router 18
Node 76	Router 19
Node 77	Router 19
Node 78	Router 19
Node 79	Router 19
Node 80	Router 20
Node 81	Router 20
Node 82	Router 20
Node 83	Router 20
Node 84	Router 21
Node 85	Router 21
Node 86	Router 21
Node 87	Router 21
Node 88	Router 22
Node 89	Router 22
Node 90	Router 22
Node 91	Router 22
Node 92	Router 23
Node 93	Router 23
Node 94	Router 23
Node 95	Router 23
Node 96	Router 24
Node 97	Router 24
Node 98	Router 24
Node 99	Router 24
Node 100	Router 25
Node 101	Router 25
Node 102	Router 25
Node 103	Router 25
Node 104	Router 26
Node 105	Router 26
Node 106	Router 26
Node 107	Router 26
Node 108	Router 27
Node 109	Router 27
Node 110	Router 27
Node 111	Router 27
Node 112	Router 28
Node 113	Router 28
Node 114	Router 28
Node 115	Router 28
Node 116	Router 29
Node 117	Router 29
Node 118	Router 29
Node 119	Router 29
Node 120	Router 30
Node 121	Router 30
Node 122	Router 30
Node 123	Router 30
Node 124	Router 31
Node 125	Router 31
Node 126	Router 31
Node 127	Router 31
Node 128	Router 32
Node 129	Router 32
Node 130	Router 32
Node 131	Router 32
Node 132	Router 33
Node 133	Router 33
Node 134	Router 33
Node 135	Router 33
Node 136	Router 34
Node 137	Router 34
Node 138	Router 34
Node 139	Router 34
Node 140	Router 35
Node 141	Router 35
Node 142	Router 35
Node 143	Router 35
Node 144	Router 36
Node 145	Router 36
Node 146	Router 36
Node 147	Router 36
Node 148	Router 37
Node 149	Router 37
Node 150	Router 37
Node 151	Router 37
Node 152	Router 38
Node 153	Router 38
Node 154	Router 38
Node 155	Router 38
Node 156	Router 39
Node 157	Router 39
Node 158	Router 39
Node 159	Router 39
Node 160	Router 40
Node 161	Router 40
Node 162	Router 40
Node 163	Router 40
Node 164	Router 41
Node 165	Router 41
Node 166	Router 41
Node 167	Router 41
Node 168	Router 1
Node 169	Router 2
Node 170	Router 4
Node 171	Router 5

****************router to node listing*************
Router 0
	 Node 0 lat 1
	 Node 1 lat 1
	 Node 2 lat 1
	 Node 3 lat 1
Router 1
	 Node 4 lat 1
	 Node 5 lat 1
	 Node 6 lat 1
	 Node 7 lat 1
	 Node 168 lat 1
Router 2
	 Node 8 lat 1
	 Node 9 lat 1
	 Node 10 lat 1
	 Node 11 lat 1
	 Node 169 lat 1
Router 3
	 Node 12 lat 1
	 Node 13 lat 1
	 Node 14 lat 1
	 Node 15 lat 1
Router 4
	 Node 16 lat 1
	 Node 17 lat 1
	 Node 18 lat 1
	 Node 19 lat 1
	 Node 170 lat 1
Router 5
	 Node 20 lat 1
	 Node 21 lat 1
	 Node 22 lat 1
	 Node 23 lat 1
	 Node 171 lat 1
Router 6
	 Node 24 lat 1
	 Node 25 lat 1
	 Node 26 lat 1
	 Node 27 lat 1
Router 7
	 Node 28 lat 1
	 Node 29 lat 1
	 Node 30 lat 1
	 Node 31 lat 1
Router 8
	 Node 32 lat 1
	 Node 33 lat 1
	 Node 34 lat 1
	 Node 35 lat 1
Router 9
	 Node 36 lat 1
	 Node 37 lat 1
	 Node 38 lat 1
	 Node 39 lat 1
Router 10
	 Node 40 lat 1
	 Node 41 lat 1
	 Node 42 lat 1
	 Node 43 lat 1
Router 11
	 Node 44 lat 1
	 Node 45 lat 1
	 Node 46 lat 1
	 Node 47 lat 1
Router 12
	 Node 48 lat 1
	 Node 49 lat 1
	 Node 50 lat 1
	 Node 51 lat 1
Router 13
	 Node 52 lat 1
	 Node 53 lat 1
	 Node 54 lat 1
	 Node 55 lat 1
Router 14
	 Node 56 lat 1
	 Node 57 lat 1
	 Node 58 lat 1
	 Node 59 lat 1
Router 15
	 Node 60 lat 1
	 Node 61 lat 1
	 Node 62 lat 1
	 Node 63 lat 1
Router 16
	 Node 64 lat 1
	 Node 65 lat 1
	 Node 66 lat 1
	 Node 67 lat 1
Router 17
	 Node 68 lat 1
	 Node 69 lat 1
	 Node 70 lat 1
	 Node 71 lat 1
Router 18
	 Node 72 lat 1
	 Node 73 lat 1
	 Node 74 lat 1
	 Node 75 lat 1
Router 19
	 Node 76 lat 1
	 Node 77 lat 1
	 Node 78 lat 1
	 Node 79 lat 1
Router 20
	 Node 80 lat 1
	 Node 81 lat 1
	 Node 82 lat 1
	 Node 83 lat 1
Router 21
	 Node 84 lat 1
	 Node 85 lat 1
	 Node 86 lat 1
	 Node 87 lat 1
Router 22
	 Node 88 lat 1
	 Node 89 lat 1
	 Node 90 lat 1
	 Node 91 lat 1
Router 23
	 Node 92 lat 1
	 Node 93 lat 1
	 Node 94 lat 1
	 Node 95 lat 1
Router 24
	 Node 96 lat 1
	 Node 97 lat 1
	 Node 98 lat 1
	 Node 99 lat 1
Router 25
	 Node 100 lat 1
	 Node 101 lat 1
	 Node 102 lat 1
	 Node 103 lat 1
Router 26
	 Node 104 lat 1
	 Node 105 lat 1
	 Node 106 lat 1
	 Node 107 lat 1
Router 27
	 Node 108 lat 1
	 Node 109 lat 1
	 Node 110 lat 1
	 Node 111 lat 1
Router 28
	 Node 112 lat 1
	 Node 113 lat 1
	 Node 114 lat 1
	 Node 115 lat 1
Router 29
	 Node 116 lat 1
	 Node 117 lat 1
	 Node 118 lat 1
	 Node 119 lat 1
Router 30
	 Node 120 lat 1
	 Node 121 lat 1
	 Node 122 lat 1
	 Node 123 lat 1
Router 31
	 Node 124 lat 1
	 Node 125 lat 1
	 Node 126 lat 1
	 Node 127 lat 1
Router 32
	 Node 128 lat 1
	 Node 129 lat 1
	 Node 130 lat 1
	 Node 131 lat 1
Router 33
	 Node 132 lat 1
	 Node 133 lat 1
	 Node 134 lat 1
	 Node 135 lat 1
Router 34
	 Node 136 lat 1
	 Node 137 lat 1
	 Node 138 lat 1
	 Node 139 lat 1
Router 35
	 Node 140 lat 1
	 Node 141 lat 1
	 Node 142 lat 1
	 Node 143 lat 1
Router 36
	 Node 144 lat 1
	 Node 145 lat 1
	 Node 146 lat 1
	 Node 147 lat 1
Router 37
	 Node 148 lat 1
	 Node 149 lat 1
	 Node 150 lat 1
	 Node 151 lat 1
Router 38
	 Node 152 lat 1
	 Node 153 lat 1
	 Node 154 lat 1
	 Node 155 lat 1
Router 39
	 Node 156 lat 1
	 Node 157 lat 1
	 Node 158 lat 1
	 Node 159 lat 1
Router 40
	 Node 160 lat 1
	 Node 161 lat 1
	 Node 162 lat 1
	 Node 163 lat 1
Router 41
	 Node 164 lat 1
	 Node 165 lat 1
	 Node 166 lat 1
	 Node 167 lat 1

*****************router to router listing************
Router 0
	 Router 1 lat 2
	 Router 7 lat 2
Router 1
	 Router 0 lat 2
	 Router 2 lat 2
	 Router 8 lat 2
Router 2
	 Router 1 lat 2
	 Router 3 lat 2
	 Router 9 lat 2
Router 3
	 Router 2 lat 2
	 Router 4 lat 2
	 Router 10 lat 2
Router 4
	 Router 3 lat 2
	 Router 5 lat 2
	 Router 11 lat 2
Router 5
	 Router 4 lat 2
	 Router 6 lat 2
	 Router 12 lat 2
Router 6
	 Router 5 lat 2
	 Router 13 lat 2
Router 7
	 Router 0 lat 2
	 Router 8 lat 2
	 Router 14 lat 2
Router 8
	 Router 1 lat 2
	 Router 7 lat 2
	 Router 9 lat 2
	 Router 15 lat 2
Router 9
	 Router 2 lat 2
	 Router 8 lat 2
	 Router 10 lat 2
	 Router 16 lat 2
Router 10
	 Router 3 lat 2
	 Router 9 lat 2
	 Router 11 lat 2
	 Router 17 lat 2
Router 11
	 Router 4 lat 2
	 Router 10 lat 2
	 Router 12 lat 2
	 Router 18 lat 2
Router 12
	 Router 5 lat 2
	 Router 11 lat 2
	 Router 13 lat 2
	 Router 19 lat 2
Router 13
	 Router 6 lat 2
	 Router 12 lat 2
	 Router 20 lat 2
Router 14
	 Router 7 lat 2
	 Router 15 lat 2
	 Router 21 lat 2
Router 15
	 Router 8 lat 2
	 Router 14 lat 2
	 Router 16 lat 2
	 Router 22 lat 2
Router 16
	 Router 9 lat 2
	 Router 15 lat 2
	 Router 17 lat 2
	 Router 23 lat 2
Router 17
	 Router 10 lat 2
	 Router 16 lat 2
	 Router 18 lat 2
	 Router 24 lat 2
Router 18
	 Router 11 lat 2
	 Router 17 lat 2
	 Router 19 lat 2
	 Router 25 lat 2
Router 19
	 Router 12 lat 2
	 Router 18 lat 2
	 Router 20 lat 2
	 Router 26 lat 2
Router 20
	 Router 13 lat 2
	 Router 19 lat 2
	 Router 27 lat 2
Router 21
	 Router 14 lat 2
	 Router 22 lat 2
	 Router 28 lat 2
Router 22
	 Router 15 lat 2
	 Router 21 lat 2
	 Router 23 lat 2
	 Router 29 lat 2
Router 23
	 Router 16 lat 2
	 Router 22 lat 2
	 Router 24 lat 2
	 Router 30 lat 2
Router 24
	 Router 17 lat 2
	 Router 23 lat 2
	 Router 25 lat 2
	 Router 31 lat 2
Router 25
	 Router 18 lat 2
	 Router 24 lat 2
	 Router 26 lat 2
	 Router 32 lat 2
Router 26
	 Router 19 lat 2
	 Router 25 lat 2
	 Router 27 lat 2
	 Router 33 lat 2
Router 27
	 Router 20 lat 2
	 Router 26 lat 2
	 Router 34 lat 2
Router 28
	 Router 21 lat 2
	 Router 29 lat 2
	 Router 35 lat 2
Router 29
	 Router 22 lat 2
	 Router 28 lat 2
	 Router 30 lat 2
	 Router 36 lat 2
Router 30
	 Router 23 lat 2
	 Router 29 lat 2
	 Router 31 lat 2
	 Router 37 lat 2
Router 31
	 Router 24 lat 2
	 Router 30 lat 2
	 Router 32 lat 2
	 Router 38 lat 2
Router 32
	 Router 25 lat 2
	 Router 31 lat 2
	 Router 33 lat 2
	 Router 39 lat 2
Router 33
	 Router 26 lat 2
	 Router 32 lat 2
	 Router 34 lat 2
	 Router 40 lat 2
Router 34
	 Router 27 lat 2
	 Router 33 lat 2
	 Router 41 lat 2
Router 35
	 Router 28 lat 2
	 Router 36 lat 2
Router 36
	 Router 29 lat 2
	 Router 35 lat 2
	 Router 37 lat 2
Router 37
	 Router 30 lat 2
	 Router 36 lat 2
	 Router 38 lat 2
Router 38
	 Router 31 lat 2
	 Router 37 lat 2
	 Router 39 lat 2
Router 39
	 Router 32 lat 2
	 Router 38 lat 2
	 Router 40 lat 2
Router 40
	 Router 33 lat 2
	 Router 39 lat 2
	 Router 41 lat 2
Router 41
	 Router 34 lat 2
	 Router 40 lat 2
==========================Node to Router =====================
router 0 radix 6
	 connected to node 0 at outport 0 lat 1
	 connected to node 1 at outport 1 lat 1
	 connected to node 2 at outport 2 lat 1
	 connected to node 3 at outport 3 lat 1
router 1 radix 8
	 connected to node 4 at outport 0 lat 1
	 connected to node 5 at outport 1 lat 1
	 connected to node 6 at outport 2 lat 1
	 connected to node 7 at outport 3 lat 1
	 connected to node 168 at outport 4 lat 1
router 2 radix 8
	 connected to node 8 at outport 0 lat 1
	 connected to node 9 at outport 1 lat 1
	 connected to node 10 at outport 2 lat 1
	 connected to node 11 at outport 3 lat 1
	 connected to node 169 at outport 4 lat 1
router 3 radix 7
	 connected to node 12 at outport 0 lat 1
	 connected to node 13 at outport 1 lat 1
	 connected to node 14 at outport 2 lat 1
	 connected to node 15 at outport 3 lat 1
router 4 radix 8
	 connected to node 16 at outport 0 lat 1
	 connected to node 17 at outport 1 lat 1
	 connected to node 18 at outport 2 lat 1
	 connected to node 19 at outport 3 lat 1
	 connected to node 170 at outport 4 lat 1
router 5 radix 8
	 connected to node 20 at outport 0 lat 1
	 connected to node 21 at outport 1 lat 1
	 connected to node 22 at outport 2 lat 1
	 connected to node 23 at outport 3 lat 1
	 connected to node 171 at outport 4 lat 1
router 6 radix 6
	 connected to node 24 at outport 0 lat 1
	 connected to node 25 at outport 1 lat 1
	 connected to node 26 at outport 2 lat 1
	 connected to node 27 at outport 3 lat 1
router 7 radix 7
	 connected to node 28 at outport 0 lat 1
	 connected to node 29 at outport 1 lat 1
	 connected to node 30 at outport 2 lat 1
	 connected to node 31 at outport 3 lat 1
router 8 radix 8
	 connected to node 32 at outport 0 lat 1
	 connected to node 33 at outport 1 lat 1
	 connected to node 34 at outport 2 lat 1
	 connected to node 35 at outport 3 lat 1
router 9 radix 8
	 connected to node 36 at outport 0 lat 1
	 connected to node 37 at outport 1 lat 1
	 connected to node 38 at outport 2 lat 1
	 connected to node 39 at outport 3 lat 1
router 10 radix 8
	 connected to node 40 at outport 0 lat 1
	 connected to node 41 at outport 1 lat 1
	 connected to node 42 at outport 2 lat 1
	 connected to node 43 at outport 3 lat 1
router 11 radix 8
	 connected to node 44 at outport 0 lat 1
	 connected to node 45 at outport 1 lat 1
	 connected to node 46 at outport 2 lat 1
	 connected to node 47 at outport 3 lat 1
router 12 radix 8
	 connected to node 48 at outport 0 lat 1
	 connected to node 49 at outport 1 lat 1
	 connected to node 50 at outport 2 lat 1
	 connected to node 51 at outport 3 lat 1
router 13 radix 7
	 connected to node 52 at outport 0 lat 1
	 connected to node 53 at outport 1 lat 1
	 connected to node 54 at outport 2 lat 1
	 connected to node 55 at outport 3 lat 1
router 14 radix 7
	 connected to node 56 at outport 0 lat 1
	 connected to node 57 at outport 1 lat 1
	 connected to node 58 at outport 2 lat 1
	 connected to node 59 at outport 3 lat 1
router 15 radix 8
	 connected to node 60 at outport 0 lat 1
	 connected to node 61 at outport 1 lat 1
	 connected to node 62 at outport 2 lat 1
	 connected to node 63 at outport 3 lat 1
router 16 radix 8
	 connected to node 64 at outport 0 lat 1
	 connected to node 65 at outport 1 lat 1
	 connected to node 66 at outport 2 lat 1
	 connected to node 67 at outport 3 lat 1
router 17 radix 8
	 connected to node 68 at outport 0 lat 1
	 connected to node 69 at outport 1 lat 1
	 connected to node 70 at outport 2 lat 1
	 connected to node 71 at outport 3 lat 1
router 18 radix 8
	 connected to node 72 at outport 0 lat 1
	 connected to node 73 at outport 1 lat 1
	 connected to node 74 at outport 2 lat 1
	 connected to node 75 at outport 3 lat 1
router 19 radix 8
	 connected to node 76 at outport 0 lat 1
	 connected to node 77 at outport 1 lat 1
	 connected to node 78 at outport 2 lat 1
	 connected to node 79 at outport 3 lat 1
router 20 radix 7
	 connected to node 80 at outport 0 lat 1
	 connected to node 81 at outport 1 lat 1
	 connected to node 82 at outport 2 lat 1
	 connected to node 83 at outport 3 lat 1
router 21 radix 7
	 connected to node 84 at outport 0 lat 1
	 connected to node 85 at outport 1 lat 1
	 connected to node 86 at outport 2 lat 1
	 connected to node 87 at outport 3 lat 1
router 22 radix 8
	 connected to node 88 at outport 0 lat 1
	 connected to node 89 at outport 1 lat 1
	 connected to node 90 at outport 2 lat 1
	 connected to node 91 at outport 3 lat 1
router 23 radix 8
	 connected to node 92 at outport 0 lat 1
	 connected to node 93 at outport 1 lat 1
	 connected to node 94 at outport 2 lat 1
	 connected to node 95 at outport 3 lat 1
router 24 radix 8
	 connected to node 96 at outport 0 lat 1
	 connected to node 97 at outport 1 lat 1
	 connected to node 98 at outport 2 lat 1
	 connected to node 99 at outport 3 lat 1
router 25 radix 8
	 connected to node 100 at outport 0 lat 1
	 connected to node 101 at outport 1 lat 1
	 connected to node 102 at outport 2 lat 1
	 connected to node 103 at outport 3 lat 1
router 26 radix 8
	 connected to node 104 at outport 0 lat 1
	 connected to node 105 at outport 1 lat 1
	 connected to node 106 at outport 2 lat 1
	 connected to node 107 at outport 3 lat 1
router 27 radix 7
	 connected to node 108 at outport 0 lat 1
	 connected to node 109 at outport 1 lat 1
	 connected to node 110 at outport 2 lat 1
	 connected to node 111 at outport 3 lat 1
router 28 radix 7
	 connected to node 112 at outport 0 lat 1
	 connected to node 113 at outport 1 lat 1
	 connected to node 114 at outport 2 lat 1
	 connected to node 115 at outport 3 lat 1
router 29 radix 8
	 connected to node 116 at outport 0 lat 1
	 connected to node 117 at outport 1 lat 1
	 connected to node 118 at outport 2 lat 1
	 connected to node 119 at outport 3 lat 1
router 30 radix 8
	 connected to node 120 at outport 0 lat 1
	 connected to node 121 at outport 1 lat 1
	 connected to node 122 at outport 2 lat 1
	 connected to node 123 at outport 3 lat 1
router 31 radix 8
	 connected to node 124 at outport 0 lat 1
	 connected to node 125 at outport 1 lat 1
	 connected to node 126 at outport 2 lat 1
	 connected to node 127 at outport 3 lat 1
router 32 radix 8
	 connected to node 128 at outport 0 lat 1
	 connected to node 129 at outport 1 lat 1
	 connected to node 130 at outport 2 lat 1
	 connected to node 131 at outport 3 lat 1
router 33 radix 8
	 connected to node 132 at outport 0 lat 1
	 connected to node 133 at outport 1 lat 1
	 connected to node 134 at outport 2 lat 1
	 connected to node 135 at outport 3 lat 1
router 34 radix 7
	 connected to node 136 at outport 0 lat 1
	 connected to node 137 at outport 1 lat 1
	 connected to node 138 at outport 2 lat 1
	 connected to node 139 at outport 3 lat 1
router 35 radix 6
	 connected to node 140 at outport 0 lat 1
	 connected to node 141 at outport 1 lat 1
	 connected to node 142 at outport 2 lat 1
	 connected to node 143 at outport 3 lat 1
router 36 radix 7
	 connected to node 144 at outport 0 lat 1
	 connected to node 145 at outport 1 lat 1
	 connected to node 146 at outport 2 lat 1
	 connected to node 147 at outport 3 lat 1
router 37 radix 7
	 connected to node 148 at outport 0 lat 1
	 connected to node 149 at outport 1 lat 1
	 connected to node 150 at outport 2 lat 1
	 connected to node 151 at outport 3 lat 1
router 38 radix 7
	 connected to node 152 at outport 0 lat 1
	 connected to node 153 at outport 1 lat 1
	 connected to node 154 at outport 2 lat 1
	 connected to node 155 at outport 3 lat 1
router 39 radix 7
	 connected to node 156 at outport 0 lat 1
	 connected to node 157 at outport 1 lat 1
	 connected to node 158 at outport 2 lat 1
	 connected to node 159 at outport 3 lat 1
router 40 radix 7
	 connected to node 160 at outport 0 lat 1
	 connected to node 161 at outport 1 lat 1
	 connected to node 162 at outport 2 lat 1
	 connected to node 163 at outport 3 lat 1
router 41 radix 6
	 connected to node 164 at outport 0 lat 1
	 connected to node 165 at outport 1 lat 1
	 connected to node 166 at outport 2 lat 1
	 connected to node 167 at outport 3 lat 1
==========================Router to Router =====================
router 0
	 connected to router 1 using link 0 at outport 4 lat 2
	 connected to router 7 using link 1 at outport 5 lat 2
router 1
	 connected to router 0 using link 2 at outport 5 lat 2
	 connected to router 2 using link 3 at outport 6 lat 2
	 connected to router 8 using link 4 at outport 7 lat 2
router 2
	 connected to router 1 using link 5 at outport 5 lat 2
	 connected to router 3 using link 6 at outport 6 lat 2
	 connected to router 9 using link 7 at outport 7 lat 2
router 3
	 connected to router 2 using link 8 at outport 4 lat 2
	 connected to router 4 using link 9 at outport 5 lat 2
	 connected to router 10 using link 10 at outport 6 lat 2
router 4
	 connected to router 3 using link 11 at outport 5 lat 2
	 connected to router 5 using link 12 at outport 6 lat 2
	 connected to router 11 using link 13 at outport 7 lat 2
router 5
	 connected to router 4 using link 14 at outport 5 lat 2
	 connected to router 6 using link 15 at outport 6 lat 2
	 connected to router 12 using link 16 at outport 7 lat 2
router 6
	 connected to router 5 using link 17 at outport 4 lat 2
	 connected to router 13 using link 18 at outport 5 lat 2
router 7
	 connected to router 0 using link 19 at outport 4 lat 2
	 connected to router 8 using link 20 at outport 5 lat 2
	 connected to router 14 using link 21 at outport 6 lat 2
router 8
	 connected to router 1 using link 22 at outport 4 lat 2
	 connected to router 7 using link 23 at outport 5 lat 2
	 connected to router 9 using link 24 at outport 6 lat 2
	 connected to router 15 using link 25 at outport 7 lat 2
router 9
	 connected to router 2 using link 26 at outport 4 lat 2
	 connected to router 8 using link 27 at outport 5 lat 2
	 connected to router 10 using link 28 at outport 6 lat 2
	 connected to router 16 using link 29 at outport 7 lat 2
router 10
	 connected to router 3 using link 30 at outport 4 lat 2
	 connected to router 9 using link 31 at outport 5 lat 2
	 connected to router 11 using link 32 at outport 6 lat 2
	 connected to router 17 using link 33 at outport 7 lat 2
router 11
	 connected to router 4 using link 34 at outport 4 lat 2
	 connected to router 10 using link 35 at outport 5 lat 2
	 connected to router 12 using link 36 at outport 6 lat 2
	 connected to router 18 using link 37 at outport 7 lat 2
router 12
	 connected to router 5 using link 38 at outport 4 lat 2
	 connected to router 11 using link 39 at outport 5 lat 2
	 connected to router 13 using link 40 at outport 6 lat 2
	 connected to router 19 using link 41 at outport 7 lat 2
router 13
	 connected to router 6 using link 42 at outport 4 lat 2
	 connected to router 12 using link 43 at outport 5 lat 2
	 connected to router 20 using link 44 at outport 6 lat 2
router 14
	 connected to router 7 using link 45 at outport 4 lat 2
	 connected to router 15 using link 46 at outport 5 lat 2
	 connected to router 21 using link 47 at outport 6 lat 2
router 15
	 connected to router 8 using link 48 at outport 4 lat 2
	 connected to router 14 using link 49 at outport 5 lat 2
	 connected to router 16 using link 50 at outport 6 lat 2
	 connected to router 22 using link 51 at outport 7 lat 2
router 16
	 connected to router 9 using link 52 at outport 4 lat 2
	 connected to router 15 using link 53 at outport 5 lat 2
	 connected to router 17 using link 54 at outport 6 lat 2
	 connected to router 23 using link 55 at outport 7 lat 2
router 17
	 connected to router 10 using link 56 at outport 4 lat 2
	 connected to router 16 using link 57 at outport 5 lat 2
	 connected to router 18 using link 58 at outport 6 lat 2
	 connected to router 24 using link 59 at outport 7 lat 2
router 18
	 connected to router 11 using link 60 at outport 4 lat 2
	 connected to router 17 using link 61 at outport 5 lat 2
	 connected to router 19 using link 62 at outport 6 lat 2
	 connected to router 25 using link 63 at outport 7 lat 2
router 19
	 connected to router 12 using link 64 at outport 4 lat 2
	 connected to router 18 using link 65 at outport 5 lat 2
	 connected to router 20 using link 66 at outport 6 lat 2
	 connected to router 26 using link 67 at outport 7 lat 2
router 20
[...]
router 4
	 connected to router 3 using link 11 at outport 5 lat 2
	 connected to router 5 using link 12 at outport 6 lat 2
	 connected to router 11 using link 13 at outport 7 lat 2
router 5
	 connected to router 4 using link 14 at outport 5 lat 2
	 connected to router 6 using link 15 at outport 6 lat 2
	 connected to router 12 using link 16 at outport 7 lat 2
router 6
	 connected to router 5 using link 17 at outport 4 lat 2
	 connected to router 13 using link 18 at outport 5 lat 2
router 7
	 connected to router 0 using link 19 at outport 4 lat 2
	 connected to router 8 using link 20 at outport 5 lat 2
	 connected to router 14 using link 21 at outport 6 lat 2
router 8
	 connected to router 1 using link 22 at outport 4 lat 2
	 connected to router 7 using link 23 at outport 5 lat 2
	 connected to router 9 using link 24 at outport 6 lat 2
	 connected to router 15 using link 25 at outport 7 lat 2
router 9
	 connected to router 2 using link 26 at outport 4 lat 2
	 connected to router 8 using link 27 at outport 5 lat 2
	 connected to router 10 using link 28 at outport 6 lat 2
	 connected to router 16 using link 29 at outport 7 lat 2
router 10
	 connected to router 3 using link 30 at outport 4 lat 2
	 connected to router 9 using link 31 at outport 5 lat 2
	 connected to router 11 using link 32 at outport 6 lat 2
	 connected to router 17 using link 33 at outport 7 lat 2
router 11
	 connected to router 4 using link 34 at outport 4 lat 2
	 connected to router 10 using link 35 at outport 5 lat 2
	 connected to router 12 using link 36 at outport 6 lat 2
	 connected to router 18 using link 37 at outport 7 lat 2
router 12
	 connected to router 5 using link 38 at outport 4 lat 2
	 connected to router 11 using link 39 at outport 5 lat 2
	 connected to router 13 using link 40 at outport 6 lat 2
	 connected to router 19 using link 41 at outport 7 lat 2
router 13
	 connected to router 6 using link 42 at outport 4 lat 2
	 connected to router 12 using link 43 at outport 5 lat 2
	 connected to router 20 using link 44 at outport 6 lat 2
router 14
	 connected to router 7 using link 45 at outport 4 lat 2
	 connected to router 15 using link 46 at outport 5 lat 2
	 connected to router 21 using link 47 at outport 6 lat 2
router 15
	 connected to router 8 using link 48 at outport 4 lat 2
	 connected to router 14 using link 49 at outport 5 lat 2
	 connected to router 16 using link 50 at outport 6 lat 2
	 connected to router 22 using link 51 at outport 7 lat 2
router 16
	 connected to router 9 using link 52 at outport 4 lat 2
	 connected to router 15 using link 53 at outport 5 lat 2
	 connected to router 17 using link 54 at outport 6 lat 2
	 connected to router 23 using link 55 at outport 7 lat 2
router 17
	 connected to router 10 using link 56 at outport 4 lat 2
	 connected to router 16 using link 57 at outport 5 lat 2
	 connected to router 18 using link 58 at outport 6 lat 2
	 connected to router 24 using link 59 at outport 7 lat 2
router 18
	 connected to router 11 using link 60 at outport 4 lat 2
	 connected to router 17 using link 61 at outport 5 lat 2
	 connected to router 19 using link 62 at outport 6 lat 2
	 connected to router 25 using link 63 at outport 7 lat 2
router 19
	 connected to router 12 using link 64 at outport 4 lat 2
	 connected to router 18 using link 65 at outport 5 lat 2
	 connected to router 20 using link 66 at outport 6 lat 2
	 connected to router 26 using link 67 at outport 7 lat 2
router 20
	 connected to router 13 using link 68 at outport 4 lat 2
	 connected to router 19 using link 69 at outport 5 lat 2
	 connected to router 27 using link 70 at outport 6 lat 2
router 21
	 connected to router 14 using link 71 at outport 4 lat 2
	 connected to router 22 using link 72 at outport 5 lat 2
	 connected to router 28 using link 73 at outport 6 lat 2
router 22
	 connected to router 15 using link 74 at outport 4 lat 2
	 connected to router 21 using link 75 at outport 5 lat 2
	 connected to router 23 using link 76 at outport 6 lat 2
	 connected to router 29 using link 77 at outport 7 lat 2
router 23
	 connected to router 16 using link 78 at outport 4 lat 2
	 connected to router 22 using link 79 at outport 5 lat 2
	 connected to router 24 using link 80 at outport 6 lat 2
	 connected to router 30 using link 81 at outport 7 lat 2
router 24
	 connected to router 17 using link 82 at outport 4 lat 2
	 connected to router 23 using link 83 at outport 5 lat 2
	 connected to router 25 using link 84 at outport 6 lat 2
	 connected to router 31 using link 85 at outport 7 lat 2
router 25
	 connected to router 18 using link 86 at outport 4 lat 2
	 connected to router 24 using link 87 at outport 5 lat 2
	 connected to router 26 using link 88 at outport 6 lat 2
	 connected to router 32 using link 89 at outport 7 lat 2
router 26
	 connected to router 19 using link 90 at outport 4 lat 2
	 connected to router 25 using link 91 at outport 5 lat 2
	 connected to router 27 using link 92 at outport 6 lat 2
	 connected to router 33 using link 93 at outport 7 lat 2
router 27
	 connected to router 20 using link 94 at outport 4 lat 2
	 connected to router 26 using link 95 at outport 5 lat 2
	 connected to router 34 using link 96 at outport 6 lat 2
router 28
	 connected to router 21 using link 97 at outport 4 lat 2
	 connected to router 29 using link 98 at outport 5 lat 2
	 connected to router 35 using link 99 at outport 6 lat 2
router 29
	 connected to router 22 using link 100 at outport 4 lat 2
	 connected to router 28 using link 101 at outport 5 lat 2
	 connected to router 30 using link 102 at outport 6 lat 2
	 connected to router 36 using link 103 at outport 7 lat 2
router 30
	 connected to router 23 using link 104 at outport 4 lat 2
	 connected to router 29 using link 105 at outport 5 lat 2
	 connected to router 31 using link 106 at outport 6 lat 2
	 connected to router 37 using link 107 at outport 7 lat 2
router 31
	 connected to router 24 using link 108 at outport 4 lat 2
	 connected to router 30 using link 109 at outport 5 lat 2
	 connected to router 32 using link 110 at outport 6 lat 2
	 connected to router 38 using link 111 at outport 7 lat 2
router 32
	 connected to router 25 using link 112 at outport 4 lat 2
	 connected to router 31 using link 113 at outport 5 lat 2
	 connected to router 33 using link 114 at outport 6 lat 2
	 connected to router 39 using link 115 at outport 7 lat 2
router 33
	 connected to router 26 using link 116 at outport 4 lat 2
	 connected to router 32 using link 117 at outport 5 lat 2
	 connected to router 34 using link 118 at outport 6 lat 2
	 connected to router 40 using link 119 at outport 7 lat 2
router 34
	 connected to router 27 using link 120 at outport 4 lat 2
	 connected to router 33 using link 121 at outport 5 lat 2
	 connected to router 41 using link 122 at outport 6 lat 2
router 35
	 connected to router 28 using link 123 at outport 4 lat 2
	 connected to router 36 using link 124 at outport 5 lat 2
router 36
	 connected to router 29 using link 125 at outport 4 lat 2
	 connected to router 35 using link 126 at outport 5 lat 2
	 connected to router 37 using link 127 at outport 6 lat 2
router 37
	 connected to router 30 using link 128 at outport 4 lat 2
	 connected to router 36 using link 129 at outport 5 lat 2
	 connected to router 38 using link 130 at outport 6 lat 2
router 38
	 connected to router 31 using link 131 at outport 4 lat 2
	 connected to router 37 using link 132 at outport 5 lat 2
	 connected to router 39 using link 133 at outport 6 lat 2
router 39
	 connected to router 32 using link 134 at outport 4 lat 2
	 connected to router 38 using link 135 at outport 5 lat 2
	 connected to router 40 using link 136 at outport 6 lat 2
router 40
	 connected to router 33 using link 137 at outport 4 lat 2
	 connected to router 39 using link 138 at outport 5 lat 2
	 connected to router 41 using link 139 at outport 6 lat 2
router 41
	 connected to router 34 using link 140 at outport 4 lat 2
	 connected to router 40 using link 141 at outport 5 lat 2
========================== Routing table  =====================
AnyNet: using XY dimension-order routing (cols=7)
Class 0:
Packet latency average = 79.3855
	minimum = 7
	maximum = 728
Network latency average = 79.3798
	minimum = 7
	maximum = 728
Slowest packet = 5120
Flit latency average = 79.3798
	minimum = 7
	maximum = 728
Slowest flit = 6842
Fragmentation average = 0
	minimum = 0
	maximum = 0
Injected packet rate average = 0.0225407
	minimum = 0 (at node 2)
	maximum = 0.066 (at node 37)
Accepted packet rate average = 0.0175116
	minimum = 0 (at node 0)
	maximum = 0.05 (at node 30)
Injected flit rate average = 0.0225407
	minimum = 0 (at node 2)
	maximum = 0.066 (at node 37)
Accepted flit rate average= 0.0175116
	minimum = 0 (at node 0)
	maximum = 0.05 (at node 30)
Injected packet length average = 1
Accepted packet length average = 1
Total in-flight flits = 891 (0 measured)
Class 1:
Packet latency average = 34.679
	minimum = 7
	maximum = 81
Network latency average = 34.6522
	minimum = 7
	maximum = 81
Slowest packet = 12615
Flit latency average = 34.6522
	minimum = 7
	maximum = 81
Slowest flit = 16235
Fragmentation average = 0
	minimum = 0
	maximum = 0
Injected packet rate average = 0.0239884
	minimum = 0 (at node 0)
	maximum = 0.066 (at node 135)
Accepted packet rate average = 0.0232384
	minimum = 0 (at node 2)
	maximum = 0.066 (at node 73)
Injected flit rate average = 0.0239884
	minimum = 0 (at node 0)
	maximum = 0.066 (at node 135)
Accepted flit rate average= 0.0232384
	minimum = 0 (at node 2)
	maximum = 0.066 (at node 73)
Injected packet length average = 1
Accepted packet length average = 1
Total in-flight flits = 129 (0 measured)
Class 2:
Packet latency average = 144.648
	minimum = 8
	maximum = 879
Network latency average = 140.39
	minimum = 8
	maximum = 879
Slowest packet = 2807
Flit latency average = 139.165
	minimum = 7
	maximum = 878
Slowest flit = 3726
Fragmentation average = 0.258333
	minimum = 0
	maximum = 2
Injected packet rate average = 0.0158547
	minimum = 0 (at node 2)
	maximum = 0.065 (at node 21)
Accepted packet rate average = 0.0111628
	minimum = 0 (at node 0)
	maximum = 0.038 (at node 31)
Injected flit rate average = 0.0316919
	minimum = 0 (at node 2)
	maximum = 0.13 (at node 21)
Accepted flit rate average= 0.0223547
	minimum = 0 (at node 0)
	maximum = 0.076 (at node 31)
Injected packet length average = 1.9989
Accepted packet length average = 2.0026
Total in-flight flits = 1727 (0 measured)
Class 3:
Packet latency average = 34.6753
	minimum = 7
	maximum = 88
Network latency average = 34.6487
	minimum = 7
	maximum = 88
Slowest packet = 15550
Flit latency average = 34.6487
	minimum = 7
	maximum = 88
Slowest flit = 19763
Fragmentation average = 0
	minimum = 0
	maximum = 0
Injected packet rate average = 0.0242035
	minimum = 0 (at node 0)
	maximum = 0.07 (at node 70)
Accepted packet rate average = 0.023436
	minimum = 0 (at node 2)
	maximum = 0.076 (at node 148)
Injected flit rate average = 0.0242035
	minimum = 0 (at node 0)
	maximum = 0.07 (at node 70)
Accepted flit rate average= 0.023436
	minimum = 0 (at node 2)
	maximum = 0.076 (at node 148)
Injected packet length average = 1
Accepted packet length average = 1
Total in-flight flits = 132 (0 measured)
Class 4:
Packet latency average = 114.539
	minimum = 7
	maximum = 794
Network latency average = 114.539
	minimum = 7
	maximum = 794
Slowest packet = 4504
Flit latency average = 114.539
	minimum = 7
	maximum = 794
Slowest flit = 6025
Fragmentation average = 0
	minimum = 0
	maximum = 0
Injected packet rate average = 0.0225058
	minimum = 0 (at node 0)
	maximum = 0.07 (at node 22)
Accepted packet rate average = 0.0165233
	minimum = 0 (at node 0)
	maximum = 0.717 (at node 168)
Injected flit rate average = 0.0225058
	minimum = 0 (at node 0)
	maximum = 0.07 (at node 22)
Accepted flit rate average= 0.0165233
	minimum = 0 (at node 0)
	maximum = 0.717 (at node 168)
Injected packet length average = 1
Accepted packet length average = 1
Total in-flight flits = 1057 (0 measured)
Class 5:
Packet latency average = 157.924
	minimum = 8
	maximum = 876
Network latency average = 156.985
	minimum = 8
	maximum = 876
Slowest packet = 2222
Flit latency average = 155.442
	minimum = 7
	maximum = 875
Slowest flit = 2942
Fragmentation average = 0.965884
	minimum = 0
	maximum = 3
Injected packet rate average = 0.015436
	minimum = 0 (at node 0)
	maximum = 0.067 (at node 51)
Accepted packet rate average = 0.0103953
	minimum = 0 (at node 0)
	maximum = 0.454 (at node 168)
Injected flit rate average = 0.030843
	minimum = 0 (at node 0)
	maximum = 0.134 (at node 51)
Accepted flit rate average= 0.020814
	minimum = 0 (at node 0)
	maximum = 0.909 (at node 168)
Injected packet length average = 1.99812
Accepted packet length average = 2.00224
Total in-flight flits = 1844 (0 measured)
Class 6:
Packet latency average = 36.5736
	minimum = 7
	maximum = 80
Network latency average = 36.5736
	minimum = 7
	maximum = 80
Slowest packet = 5670
Flit latency average = 36.5736
	minimum = 7
	maximum = 80
Slowest flit = 7566
Fragmentation average = 0
	minimum = 0
	maximum = 0
Injected packet rate average = 0.00118023
	minimum = 0 (at node 0)
	maximum = 0.058 (at node 169)
Accepted packet rate average = 0.00114535
	minimum = 0 (at node 0)
	maximum = 0.007 (at node 59)
Injected flit rate average = 0.00118023
	minimum = 0 (at node 0)
	maximum = 0.058 (at node 169)
Accepted flit rate average= 0.00114535
	minimum = 0 (at node 0)
	maximum = 0.007 (at node 59)
Injected packet length average = 1
Accepted packet length average = 1
Total in-flight flits = 6 (0 measured)
latency change    = 1
throughput change = 1
latency change    = 1
throughput change = 1
latency change    = 1
throughput change = 1
latency change    = 1
throughput change = 1
latency change    = 1
throughput change = 1
latency change    = 1
throughput change = 1
latency change    = 1
throughput change = 1
Class 0:
Packet latency average = 129.125
	minimum = 7
	maximum = 1641
Network latency average = 126.711
	minimum = 7
	maximum = 1641
Slowest packet = 7061
Flit latency average = 126.711
	minimum = 7
	maximum = 1641
Slowest flit = 9376
Fragmentation average = 0
	minimum = 0
	maximum = 0
Injected packet rate average = 0.0200058
	minimum = 0 (at node 2)
	maximum = 0.06 (at node 44)
Accepted packet rate average = 0.0172907
	minimum = 0 (at node 0)
	maximum = 0.05 (at node 30)
Injected flit rate average = 0.0200058
	minimum = 0 (at node 2)
	maximum = 0.06 (at node 44)
Accepted flit rate average= 0.0172907
	minimum = 0 (at node 0)
	maximum = 0.05 (at node 30)
Injected packet length average = 1
Accepted packet length average = 1
Total in-flight flits = 967 (0 measured)
Class 1:
Packet latency average = 34.5411
	minimum = 7
	maximum = 83
Network latency average = 34.5127
	minimum = 7
	maximum = 83
Slowest packet = 25795
Flit latency average = 34.5127
	minimum = 7
	maximum = 83
Slowest flit = 47234
Fragmentation average = 0
	minimum = 0
	maximum = 0
Injected packet rate average = 0.0244331
	minimum = 0 (at node 0)
	maximum = 0.0655 (at node 107)
Accepted packet rate average = 0.0240058
	minimum = 0 (at node 2)
	maximum = 0.062 (at node 73)
Injected flit rate average = 0.0244331
	minimum = 0 (at node 0)
	maximum = 0.0655 (at node 107)
Accepted flit rate average= 0.0240058
	minimum = 0 (at node 2)
	maximum = 0.062 (at node 73)
Injected packet length average = 1
Accepted packet length average = 1
Total in-flight flits = 147 (0 measured)
Class 2:
Packet latency average = 265.761
	minimum = 8
	maximum = 1754
Network latency average = 213.836
	minimum = 8
	maximum = 1754
Slowest packet = 5950
Flit latency average = 212.844
	minimum = 7
	maximum = 1761
Slowest flit = 8025
Fragmentation average = 0.256813
	minimum = 0
	maximum = 3
Injected packet rate average = 0.013311
	minimum = 0 (at node 2)
	maximum = 0.063 (at node 21)
Accepted packet rate average = 0.011093
	minimum = 0 (at node 0)
	maximum = 0.0295 (at node 71)
Injected flit rate average = 0.0266192
	minimum = 0 (at node 2)
	maximum = 0.126 (at node 21)
Accepted flit rate average= 0.022189
	minimum = 0 (at node 0)
	maximum = 0.059 (at node 71)
Injected packet length average = 1.99978
Accepted packet length average = 2.00026
Total in-flight flits = 1645 (0 measured)
Class 3:
Packet latency average = 34.5602
	minimum = 7
	maximum = 88
Network latency average = 34.5338
	minimum = 7
	maximum = 88
Slowest packet = 15550
Flit latency average = 34.5338
	minimum = 7
	maximum = 88
Slowest flit = 19763
Fragmentation average = 0
	minimum = 0
	maximum = 0
Injected packet rate average = 0.0242326
	minimum = 0 (at node 0)
	maximum = 0.0655 (at node 70)
Accepted packet rate average = 0.0238372
	minimum = 0 (at node 2)
	maximum = 0.063 (at node 148)
Injected flit rate average = 0.0242326
	minimum = 0 (at node 0)
	maximum = 0.0655 (at node 70)
Accepted flit rate average= 0.0238372
	minimum = 0 (at node 2)
	maximum = 0.063 (at node 148)
Injected packet length average = 1
Accepted packet length average = 1
Total in-flight flits = 136 (0 measured)
Class 4:
Packet latency average = 170.508
	minimum = 7
	maximum = 1634
Network latency average = 169.233
	minimum = 7
	maximum = 1634
Slowest packet = 6172
Flit latency average = 169.233
	minimum = 7
	maximum = 1634
Slowest flit = 8230
Fragmentation average = 0
	minimum = 0
	maximum = 0
Injected packet rate average = 0.0200727
	minimum = 0 (at node 0)
	maximum = 0.0635 (at node 22)
Accepted packet rate average = 0.016907
	minimum = 0 (at node 0)
	maximum = 0.7405 (at node 171)
Injected flit rate average = 0.0200727
	minimum = 0 (at node 0)
	maximum = 0.0635 (at node 22)
Accepted flit rate average= 0.016907
	minimum = 0 (at node 0)
	maximum = 0.7405 (at node 171)
Injected packet length average = 1
Accepted packet length average = 1
Total in-flight flits = 1124 (0 measured)
Class 5:
Packet latency average = 271.924
	minimum = 8
	maximum = 1818
Network latency average = 234.821
	minimum = 8
	maximum = 1818
Slowest packet = 3306
Flit latency average = 233.241
	minimum = 7
	maximum = 1817
Slowest flit = 4399
Fragmentation average = 0.961592
	minimum = 0
	maximum = 3
Injected packet rate average = 0.0129331
	minimum = 0 (at node 0)
	maximum = 0.0585 (at node 22)
Accepted packet rate average = 0.0105203
	minimum = 0 (at node 0)
	maximum = 0.4555 (at node 168)
Injected flit rate average = 0.0258605
	minimum = 0 (at node 0)
	maximum = 0.117 (at node 22)
Accepted flit rate average= 0.0210523
	minimum = 0 (at node 0)
	maximum = 0.911 (at node 168)
Injected packet length average = 1.99955
Accepted packet length average = 2.00111
Total in-flight flits = 1778 (0 measured)
Class 6:
Packet latency average = 36.9675
	minimum = 7
	maximum = 80
Network latency average = 36.9675
	minimum = 7
	maximum = 80
Slowest packet = 5670
Flit latency average = 36.9675
	minimum = 7
	maximum = 80
Slowest flit = 7566
Fragmentation average = 0
	minimum = 0
	maximum = 0
Injected packet rate average = 0.00117733
	minimum = 0 (at node 0)
	maximum = 0.058 (at node 170)
Accepted packet rate average = 0.00116279
	minimum = 0 (at node 0)
	maximum = 0.005 (at node 50)
Injected flit rate average = 0.00117733
	minimum = 0 (at node 0)
	maximum = 0.058 (at node 170)
Accepted flit rate average= 0.00116279
	minimum = 0 (at node 0)
	maximum = 0.005 (at node 50)
Injected packet length average = 1
Accepted packet length average = 1
Total in-flight flits = 5 (0 measured)
latency change    = 0.385204
throughput change = 0.0127774
latency change    = 0.00399403
throughput change = 0.031969
latency change    = 0.455719
throughput change = 0.00746758
latency change    = 0.00332818
throughput change = 0.0168293
latency change    = 0.328249
throughput change = 0.022696
latency change    = 0.419235
throughput change = 0.0113228
latency change    = 0.0106552
throughput change = 0.015
Average latency for class 2 exceeded 500 cycles. Aborting simulation.
Too many sample periods needed to converge
Simulation unstable, ending ...
Total run time 0.369392
