BEGIN Configuration File: chi_traffic
// CHI coherent-workload traffic file for BookSim (auto-generated by gen_chi_traffic.py).
// Requires the class_subnet source patch. Mix is generated from transaction categories.
// 42 routers x 4 RN/HN terminals + 4 DDR SN terminals = 172 nodes.
// SN placement: R1=node168@(0,1), R2=node169@(0,2), R4=node170@(0,4), R5=node171@(0,5).
// channels -> subnets: REQ=0 RSP=1 SNP=2 DAT=3 ; data=2 flit, ctrl=1 flit.
// total transaction rate LAMBDA=0.001; scenario-table driven from CHI HN-F/L3/SF flows.
// SN participates only in Read DMT miss, async L3 eviction, and CleanInvalid dirty writeback.
//
// class -> category.subtype.message:
//   c0  read.ReadShared.l3_hit.ReadShared                 REQ RN->HN size=1 inj=0.0002695
//   c1  read.ReadShared.l3_hit.CompData_L3Hit             DAT HN->RN size=2 inj=0.0002695
//   c2  read.ReadShared.l3_hit.CompAck                    RSP RN->HN size=1 inj=0.0002695
//   c3  read.ReadShared.dmt_miss.ReadShared                 REQ RN->HN size=1 inj=7.7e-05
//   c4  read.ReadShared.dmt_miss.ReadNoSnp_DMT              REQ HN->SN size=1 inj=7.7e-05
//   c5  read.ReadShared.dmt_miss.CompData_DMT               DAT SN->RN size=2 inj=7.7e-05
//   c6  read.ReadShared.dmt_miss.ReadReceipt                RSP SN->HN size=1 inj=7.7e-05
//   c7  read.ReadShared.dmt_miss.CompAck                    RSP RN->HN size=1 inj=7.7e-05
//   c8  read.ReadShared.dct.ReadShared                 REQ RN->HN size=1 inj=3.85e-05
//   c9  read.ReadShared.dct.SnpFwd                     SNP HN->RN size=1 inj=3.85e-05
//   c10 read.ReadShared.dct.CompData_DCT               DAT RN->RN size=2 inj=3.85e-05
//   c11 read.ReadShared.dct.SnpRespFwded               RSP RN->HN size=1 inj=3.85e-05
//   c12 read.ReadShared.dct.Comp                       RSP HN->RN size=1 inj=3.85e-05
//   c13 read.ReadShared.dct.CompAck                    RSP RN->HN size=1 inj=3.85e-05
//   c14 read.ReadUnique.l3_hit.ReadUnique                 REQ RN->HN size=1 inj=9.625e-05
//   c15 read.ReadUnique.l3_hit.CompData_L3Hit             DAT HN->RN size=2 inj=9.625e-05
//   c16 read.ReadUnique.l3_hit.CompAck                    RSP RN->HN size=1 inj=9.625e-05
//   c17 read.ReadUnique.dmt_miss.ReadUnique                 REQ RN->HN size=1 inj=2.75e-05
//   c18 read.ReadUnique.dmt_miss.ReadNoSnp_DMT              REQ HN->SN size=1 inj=2.75e-05
//   c19 read.ReadUnique.dmt_miss.CompData_DMT               DAT SN->RN size=2 inj=2.75e-05
//   c20 read.ReadUnique.dmt_miss.ReadReceipt                RSP SN->HN size=1 inj=2.75e-05
//   c21 read.ReadUnique.dmt_miss.CompAck                    RSP RN->HN size=1 inj=2.75e-05
//   c22 read.ReadUnique.dct.ReadUnique                 REQ RN->HN size=1 inj=1.375e-05
//   c23 read.ReadUnique.dct.SnpFwd                     SNP HN->RN size=1 inj=1.375e-05
//   c24 read.ReadUnique.dct.CompData_DCT               DAT RN->RN size=2 inj=1.375e-05
//   c25 read.ReadUnique.dct.SnpRespFwded               RSP RN->HN size=1 inj=1.375e-05
//   c26 read.ReadUnique.dct.Comp                       RSP HN->RN size=1 inj=1.375e-05
//   c27 read.ReadUnique.dct.CompAck                    RSP RN->HN size=1 inj=1.375e-05
//   c28 read.ReadNoSnp.l3_hit.ReadNoSnp                  REQ RN->HN size=1 inj=2.063e-05
//   c29 read.ReadNoSnp.l3_hit.CompData_L3Hit             DAT HN->RN size=2 inj=2.063e-05
//   c30 read.ReadNoSnp.l3_hit.CompAck                    RSP RN->HN size=1 inj=2.063e-05
//   c31 read.ReadNoSnp.dmt_miss.ReadNoSnp                  REQ RN->HN size=1 inj=6.88e-06
//   c32 read.ReadNoSnp.dmt_miss.ReadNoSnp_DMT              REQ HN->SN size=1 inj=6.88e-06
//   c33 read.ReadNoSnp.dmt_miss.CompData_DMT               DAT SN->RN size=2 inj=6.88e-06
//   c34 read.ReadNoSnp.dmt_miss.ReadReceipt                RSP SN->HN size=1 inj=6.88e-06
//   c35 read.ReadNoSnp.dmt_miss.CompAck                    RSP RN->HN size=1 inj=6.88e-06
//   c36 write.WriteUnique.no_sharer.WriteUnique                REQ RN->HN size=1 inj=8.1e-05
//   c37 write.WriteUnique.no_sharer.DBIDResp                   RSP HN->RN size=1 inj=8.1e-05
//   c38 write.WriteUnique.no_sharer.WriteData                  DAT RN->HN size=2 inj=8.1e-05
//   c39 write.WriteUnique.no_sharer.Comp                       RSP HN->RN size=1 inj=8.1e-05
//   c40 write.WriteUnique.clean_sharer.WriteUnique                REQ RN->HN size=1 inj=4.05e-05
//   c41 write.WriteUnique.clean_sharer.SnpMakeInvalid             SNP HN->RN size=1 inj=4.05e-05
//   c42 write.WriteUnique.clean_sharer.SnpResp_I                  RSP RN->HN size=1 inj=4.05e-05
//   c43 write.WriteUnique.clean_sharer.DBIDResp                   RSP HN->RN size=1 inj=4.05e-05
//   c44 write.WriteUnique.clean_sharer.WriteData                  DAT RN->HN size=2 inj=4.05e-05
//   c45 write.WriteUnique.clean_sharer.Comp                       RSP HN->RN size=1 inj=4.05e-05
//   c46 write.WriteUnique.dirty_sharer.WriteUnique                REQ RN->HN size=1 inj=1.35e-05
//   c47 write.WriteUnique.dirty_sharer.SnpMakeInvalid             SNP HN->RN size=1 inj=1.35e-05
//   c48 write.WriteUnique.dirty_sharer.SnpRespData_I              DAT RN->HN size=2 inj=1.35e-05
//   c49 write.WriteUnique.dirty_sharer.SnpResp_I_Ctrl             RSP RN->HN size=1 inj=1.35e-05
//   c50 write.WriteUnique.dirty_sharer.DBIDResp                   RSP HN->RN size=1 inj=1.35e-05
//   c51 write.WriteUnique.dirty_sharer.WriteData                  DAT RN->HN size=2 inj=1.35e-05
//   c52 write.WriteUnique.dirty_sharer.Comp                       RSP HN->RN size=1 inj=1.35e-05
//   c53 write.WriteBack.l3_accept.WriteBack                  REQ RN->HN size=1 inj=7.5e-05
//   c54 write.WriteBack.l3_accept.DBIDResp                   RSP HN->RN size=1 inj=7.5e-05
//   c55 write.WriteBack.l3_accept.CopyBackWriteData          DAT RN->HN size=2 inj=7.5e-05
//   c56 write.WriteBack.l3_accept.Comp                       RSP HN->RN size=1 inj=7.5e-05
//   c57 write.WriteBack.async_l3_evict.L3EvictReq                 REQ HN->SN size=1 inj=1.5e-05
//   c58 write.WriteBack.async_l3_evict.L3EvictData                DAT HN->SN size=2 inj=1.5e-05
//   c59 write.WriteBack.async_l3_evict.L3EvictComp                RSP SN->HN size=1 inj=1.5e-05
//   c60 write.WriteClean.l3_hit.WriteClean                 REQ RN->HN size=1 inj=4.5e-05
//   c61 write.WriteClean.l3_hit.DBIDResp                   RSP HN->RN size=1 inj=4.5e-05
//   c62 write.WriteClean.l3_hit.WriteData                  DAT RN->HN size=2 inj=4.5e-05
//   c63 write.WriteClean.l3_hit.Comp                       RSP HN->RN size=1 inj=4.5e-05
//   c64 write.WriteEvict.accept.WriteEvict                 REQ RN->HN size=1 inj=3.15e-05
//   c65 write.WriteEvict.accept.DBIDResp                   RSP HN->RN size=1 inj=3.15e-05
//   c66 write.WriteEvict.accept.WriteData                  DAT RN->HN size=2 inj=3.15e-05
//   c67 write.WriteEvict.accept.Comp                       RSP HN->RN size=1 inj=3.15e-05
//   c68 write.WriteEvict.reject.WriteEvict                 REQ RN->HN size=1 inj=1.35e-05
//   c69 write.WriteEvict.reject.CompReject                 RSP HN->RN size=1 inj=1.35e-05
//   c70 dataless.CleanUnique.no_sharer.CleanUnique                REQ RN->HN size=1 inj=3.3e-05
//   c71 dataless.CleanUnique.no_sharer.Comp                       RSP HN->RN size=1 inj=3.3e-05
//   c72 dataless.CleanUnique.no_sharer.CompAck                    RSP RN->HN size=1 inj=3.3e-05
//   c73 dataless.CleanUnique.clean_sharer.CleanUnique                REQ RN->HN size=1 inj=1.65e-05
//   c74 dataless.CleanUnique.clean_sharer.SnpMakeInvalid             SNP HN->RN size=1 inj=1.65e-05
//   c75 dataless.CleanUnique.clean_sharer.SnpResp_I                  RSP RN->HN size=1 inj=1.65e-05
//   c76 dataless.CleanUnique.clean_sharer.Comp                       RSP HN->RN size=1 inj=1.65e-05
//   c77 dataless.CleanUnique.clean_sharer.CompAck                    RSP RN->HN size=1 inj=1.65e-05
//   c78 dataless.CleanUnique.dirty_sharer.CleanUnique                REQ RN->HN size=1 inj=5.5e-06
//   c79 dataless.CleanUnique.dirty_sharer.SnpMakeInvalid             SNP HN->RN size=1 inj=5.5e-06
//   c80 dataless.CleanUnique.dirty_sharer.SnpRespData_I              DAT RN->HN size=2 inj=5.5e-06
//   c81 dataless.CleanUnique.dirty_sharer.SnpResp_I_Ctrl             RSP RN->HN size=1 inj=5.5e-06
//   c82 dataless.CleanUnique.dirty_sharer.Comp                       RSP HN->RN size=1 inj=5.5e-06
//   c83 dataless.CleanUnique.dirty_sharer.CompAck                    RSP RN->HN size=1 inj=5.5e-06
//   c84 dataless.MakeUnique.no_sharer.MakeUnique                 REQ RN->HN size=1 inj=2.7e-05
//   c85 dataless.MakeUnique.no_sharer.Comp                       RSP HN->RN size=1 inj=2.7e-05
//   c86 dataless.MakeUnique.no_sharer.CompAck                    RSP RN->HN size=1 inj=2.7e-05
//   c87 dataless.MakeUnique.clean_sharer.MakeUnique                 REQ RN->HN size=1 inj=1.35e-05
//   c88 dataless.MakeUnique.clean_sharer.SnpMakeInvalid             SNP HN->RN size=1 inj=1.35e-05
//   c89 dataless.MakeUnique.clean_sharer.SnpResp_I                  RSP RN->HN size=1 inj=1.35e-05
//   c90 dataless.MakeUnique.clean_sharer.Comp                       RSP HN->RN size=1 inj=1.35e-05
//   c91 dataless.MakeUnique.clean_sharer.CompAck                    RSP RN->HN size=1 inj=1.35e-05
//   c92 dataless.MakeUnique.dirty_sharer.MakeUnique                 REQ RN->HN size=1 inj=4.5e-06
//   c93 dataless.MakeUnique.dirty_sharer.SnpMakeInvalid             SNP HN->RN size=1 inj=4.5e-06
//   c94 dataless.MakeUnique.dirty_sharer.SnpRespData_I              DAT RN->HN size=2 inj=4.5e-06
//   c95 dataless.MakeUnique.dirty_sharer.SnpResp_I_Ctrl             RSP RN->HN size=1 inj=4.5e-06
//   c96 dataless.MakeUnique.dirty_sharer.Comp                       RSP HN->RN size=1 inj=4.5e-06
//   c97 dataless.MakeUnique.dirty_sharer.CompAck                    RSP RN->HN size=1 inj=4.5e-06
//   c98 cmo.CleanShared.l3_clean.CleanShared                REQ RN->HN size=1 inj=1.05e-05
//   c99 cmo.CleanShared.l3_clean.Comp                       RSP HN->RN size=1 inj=1.05e-05
//   c100 cmo.CleanShared.clean_sharer.CleanShared                REQ RN->HN size=1 inj=5.25e-06
//   c101 cmo.CleanShared.clean_sharer.SnpClean                   SNP HN->RN size=1 inj=5.25e-06
//   c102 cmo.CleanShared.clean_sharer.SnpResp                    RSP RN->HN size=1 inj=5.25e-06
//   c103 cmo.CleanShared.clean_sharer.Comp                       RSP HN->RN size=1 inj=5.25e-06
//   c104 cmo.CleanShared.dirty_sharer.CleanShared                REQ RN->HN size=1 inj=1.75e-06
//   c105 cmo.CleanShared.dirty_sharer.SnpCleanShared             SNP HN->RN size=1 inj=1.75e-06
//   c106 cmo.CleanShared.dirty_sharer.SnpRespData_SC             DAT RN->HN size=2 inj=1.75e-06
//   c107 cmo.CleanShared.dirty_sharer.Comp                       RSP HN->RN size=1 inj=1.75e-06
//   c108 cmo.CleanInvalid.l3_clean.CleanInvalid               REQ RN->HN size=1 inj=1.05e-05
//   c109 cmo.CleanInvalid.l3_clean.Comp                       RSP HN->RN size=1 inj=1.05e-05
//   c110 cmo.CleanInvalid.clean_sharer.CleanInvalid               REQ RN->HN size=1 inj=5.25e-06
//   c111 cmo.CleanInvalid.clean_sharer.SnpClean                   SNP HN->RN size=1 inj=5.25e-06
//   c112 cmo.CleanInvalid.clean_sharer.SnpResp                    RSP RN->HN size=1 inj=5.25e-06
//   c113 cmo.CleanInvalid.clean_sharer.Comp                       RSP HN->RN size=1 inj=5.25e-06
//   c114 cmo.CleanInvalid.dirty_sharer.CleanInvalid               REQ RN->HN size=1 inj=1.75e-06
//   c115 cmo.CleanInvalid.dirty_sharer.SnpCleanInvalid            SNP HN->RN size=1 inj=1.75e-06
//   c116 cmo.CleanInvalid.dirty_sharer.SnpRespData_I              DAT RN->HN size=2 inj=1.75e-06
//   c117 cmo.CleanInvalid.dirty_sharer.CleanInvalidWriteback      DAT HN->SN size=2 inj=1.75e-06
//   c118 cmo.CleanInvalid.dirty_sharer.Comp                       RSP HN->RN size=1 inj=1.75e-06
//   c119 cmo.MakeInvalid.l3_clean.MakeInvalid                REQ RN->HN size=1 inj=9e-06
//   c120 cmo.MakeInvalid.l3_clean.Comp                       RSP HN->RN size=1 inj=9e-06
//   c121 cmo.MakeInvalid.clean_sharer.MakeInvalid                REQ RN->HN size=1 inj=4.5e-06
//   c122 cmo.MakeInvalid.clean_sharer.SnpClean                   SNP HN->RN size=1 inj=4.5e-06
//   c123 cmo.MakeInvalid.clean_sharer.SnpResp                    RSP RN->HN size=1 inj=4.5e-06
//   c124 cmo.MakeInvalid.clean_sharer.Comp                       RSP HN->RN size=1 inj=4.5e-06
//   c125 cmo.MakeInvalid.dirty_sharer.MakeInvalid                REQ RN->HN size=1 inj=1.5e-06
//   c126 cmo.MakeInvalid.dirty_sharer.SnpMakeInvalid             SNP HN->RN size=1 inj=1.5e-06
//   c127 cmo.MakeInvalid.dirty_sharer.SnpResp_I                  RSP RN->HN size=1 inj=1.5e-06
//   c128 cmo.MakeInvalid.dirty_sharer.Comp                       RSP HN->RN size=1 inj=1.5e-06

topology     = anynet;
network_file = chi_traffic_anynet;
routing_function = min;

classes        = 129;
use_read_write = {0,0,0,0,0,0,0,0,0,0,0,0,0,0,0,0,0,0,0,0,0,0,0,0,0,0,0,0,0,0,0,0,0,0,0,0,0,0,0,0,0,0,0,0,0,0,0,0,0,0,0,0,0,0,0,0,0,0,0,0,0,0,0,0,0,0,0,0,0,0,0,0,0,0,0,0,0,0,0,0,0,0,0,0,0,0,0,0,0,0,0,0,0,0,0,0,0,0,0,0,0,0,0,0,0,0,0,0,0,0,0,0,0,0,0,0,0,0,0,0,0,0,0,0,0,0,0,0,0};
subnets        = 4;
class_subnet   = {0,3,1,0,0,3,1,1,0,2,3,1,1,1,0,3,1,0,0,3,1,1,0,2,3,1,1,1,0,3,1,0,0,3,1,1,0,1,3,1,0,2,1,1,3,1,0,2,3,1,1,3,1,0,1,3,1,0,3,1,0,1,3,1,0,1,3,1,0,1,0,1,1,0,2,1,1,1,0,2,3,1,1,1,0,1,1,0,2,1,1,1,0,2,3,1,1,1,0,1,0,2,1,1,0,2,3,1,0,1,0,2,1,1,0,2,3,3,1,0,1,0,2,1,1,0,2,1,1};   // REQ=0 RSP=1 SNP=2 DAT=3
class_source   = {{0,1,4,5,8,9,12,13,16,17,20,21,24,25,28,29,32,33,36,37,40,41,44,45,48,49,52,53,56,57,60,61,64,65,68,69,72,73,76,77,80,81,84,85,88,89,92,93,96,97,100,101,104,105,108,109,112,113,116,117,120,121,124,125,128,129,132,133,136,137,140,141,144,145,148,149,152,153,156,157,160,161,164,165},{2,3,6,7,10,11,14,15,18,19,22,23,26,27,30,31,34,35,38,39,42,43,46,47,50,51,54,55,58,59,62,63,66,67,70,71,74,75,78,79,82,83,86,87,90,91,94,95,98,99,102,103,106,107,110,111,114,115,118,119,122,123,126,127,130,131,134,135,138,139,142,143,146,147,150,151,154,155,158,159,162,163,166,167},{0,1,4,5,8,9,12,13,16,17,20,21,24,25,28,29,32,33,36,37,40,41,44,45,48,49,52,53,56,57,60,61,64,65,68,69,72,73,76,77,80,81,84,85,88,89,92,93,96,97,100,101,104,105,108,109,112,113,116,117,120,121,124,125,128,129,132,133,136,137,140,141,144,145,148,149,152,153,156,157,160,161,164,165},{0,1,4,5,8,9,12,13,16,17,20,21,24,25,28,29,32,33,36,37,40,41,44,45,48,49,52,53,56,57,60,61,64,65,68,69,72,73,76,77,80,81,84,85,88,89,92,93,96,97,100,101,104,105,108,109,112,113,116,117,120,121,124,125,128,129,132,133,136,137,140,141,144,145,148,149,152,153,156,157,160,161,164,165},{2,3,6,7,10,11,14,15,18,19,22,23,26,27,30,31,34,35,38,39,42,43,46,47,50,51,54,55,58,59,62,63,66,67,70,71,74,75,78,79,82,83,86,87,90,91,94,95,98,99,102,103,106,107,110,111,114,115,118,119,122,123,126,127,130,131,134,135,138,139,142,143,146,147,150,151,154,155,158,159,162,163,166,167},{168,169,170,171},{168,169,170,171},{0,1,4,5,8,9,12,13,16,17,20,21,24,25,28,29,32,33,36,37,40,41,44,45,48,49,52,53,56,57,60,61,64,65,68,69,72,73,76,77,80,81,84,85,88,89,92,93,96,97,100,101,104,105,108,109,112,113,116,117,120,121,124,125,128,129,132,133,136,137,140,141,144,145,148,149,152,153,156,157,160,161,164,165},{0,1,4,5,8,9,12,13,16,17,20,21,24,25,28,29,32,33,36,37,40,41,44,45,48,49,52,53,56,57,60,61,64,65,68,69,72,73,76,77,80,81,84,85,88,89,92,93,96,97,100,101,104,105,108,109,112,113,116,117,120,121,124,125,128,129,132,133,136,137,140,141,144,145,148,149,152,153,156,157,160,161,164,165},{2,3,6,7,10,11,14,15,18,19,22,23,26,27,30,31,34,35,38,39,42,43,46,47,50,51,54,55,58,59,62,63,66,67,70,71,74,75,78,79,82,83,86,87,90,91,94,95,98,99,102,103,106,107,110,111,114,115,118,119,122,123,126,127,130,131,134,135,138,139,142,143,146,147,150,151,154,155,158,159,162,163,166,167},{0,1,4,5,8,9,12,13,16,17,20,21,24,25,28,29,32,33,36,37,40,41,44,45,48,49,52,53,56,57,60,61,64,65,68,69,72,73,76,77,80,81,84,85,88,89,92,93,96,97,100,101,104,105,108,109,112,113,116,117,120,121,124,125,128,129,132,133,136,137,140,141,144,145,148,149,152,153,156,157,160,161,164,165},{0,1,4,5,8,9,12,13,16,17,20,21,24,25,28,29,32,33,36,37,40,41,44,45,48,49,52,53,56,57,60,61,64,65,68,69,72,73,76,77,80,81,84,85,88,89,92,93,96,97,100,101,104,105,108,109,112,113,116,117,120,121,124,125,128,129,132,133,136,137,140,141,144,145,148,149,152,153,156,157,160,161,164,165},{2,3,6,7,10,11,14,15,18,19,22,23,26,27,30,31,34,35,38,39,42,43,46,47,50,51,54,55,58,59,62,63,66,67,70,71,74,75,78,79,82,83,86,87,90,91,94,95,98,99,102,103,106,107,110,111,114,115,118,119,122,123,126,127,130,131,134,135,138,139,142,143,146,147,150,151,154,155,158,159,162,163,166,167},{0,1,4,5,8,9,12,13,16,17,20,21,24,25,28,29,32,33,36,37,40,41,44,45,48,49,52,53,56,57,60,61,64,65,68,69,72,73,76,77,80,81,84,85,88,89,92,93,96,97,100,101,104,105,108,109,112,113,116,117,120,121,124,125,128,129,132,133,136,137,140,141,144,145,148,149,152,153,156,157,160,161,164,165},{0,1,4,5,8,9,12,13,16,17,20,21,24,25,28,29,32,33,36,37,40,41,44,45,48,49,52,53,56,57,60,61,64,65,68,69,72,73,76,77,80,81,84,85,88,89,92,93,96,97,100,101,104,105,108,109,112,113,116,117,120,121,124,125,128,129,132,133,136,137,140,141,144,145,148,149,152,153,156,157,160,161,164,165},{2,3,6,7,10,11,14,15,18,19,22,23,26,27,30,31,34,35,38,39,42,43,46,47,50,51,54,55,58,59,62,63,66,67,70,71,74,75,78,79,82,83,86,87,90,91,94,95,98,99,102,103,106,107,110,111,114,115,118,119,122,123,126,127,130,131,134,135,138,139,142,143,146,147,150,151,154,155,158,159,162,163,166,167},{0,1,4,5,8,9,12,13,16,17,20,21,24,25,28,29,32,33,36,37,40,41,44,45,48,49,52,53,56,57,60,61,64,65,68,69,72,73,76,77,80,81,84,85,88,89,92,93,96,97,100,101,104,105,108,109,112,113,116,117,120,121,124,125,128,129,132,133,136,137,140,141,144,145,148,149,152,153,156,157,160,161,164,165},{0,1,4,5,8,9,12,13,16,17,20,21,24,25,28,29,32,33,36,37,40,41,44,45,48,49,52,53,56,57,60,61,64,65,68,69,72,73,76,77,80,81,84,85,88,89,92,93,96,97,100,101,104,105,108,109,112,113,116,117,120,121,124,125,128,129,132,133,136,137,140,141,144,145,148,149,152,153,156,157,160,161,164,165},{2,3,6,7,10,11,14,15,18,19,22,23,26,27,30,31,34,35,38,39,42,43,46,47,50,51,54,55,58,59,62,63,66,67,70,71,74,75,78,79,82,83,86,87,90,91,94,95,98,99,102,103,106,107,110,111,114,115,118,119,122,123,126,127,130,131,134,135,138,139,142,143,146,147,150,151,154,155,158,159,162,163,166,167},{168,169,170,171},{168,169,170,171},{0,1,4,5,8,9,12,13,16,17,20,21,24,25,28,29,32,33,36,37,40,41,44,45,48,49,52,53,56,57,60,61,64,65,68,69,72,73,76,77,80,81,84,85,88,89,92,93,96,97,100,101,104,105,108,109,112,113,116,117,120,121,124,125,128,129,132,133,136,137,140,141,144,145,148,149,152,153,156,157,160,161,164,165},{0,1,4,5,8,9,12,13,16,17,20,21,24,25,28,29,32,33,36,37,40,41,44,45,48,49,52,53,56,57,60,61,64,65,68,69,72,73,76,77,80,81,84,85,88,89,92,93,96,97,100,101,104,105,108,109,112,113,116,117,120,121,124,125,128,129,132,133,136,137,140,141,144,145,148,149,152,153,156,157,160,161,164,165},{2,3,6,7,10,11,14,15,18,19,22,23,26,27,30,31,34,35,38,39,42,43,46,47,50,51,54,55,58,59,62,63,66,67,70,71,74,75,78,79,82,83,86,87,90,91,94,95,98,99,102,103,106,107,110,111,114,115,118,119,122,123,126,127,130,131,134,135,138,139,142,143,146,147,150,151,154,155,158,159,162,163,166,167},{0,1,4,5,8,9,12,13,16,17,20,21,24,25,28,29,32,33,36,37,40,41,44,45,48,49,52,53,56,57,60,61,64,65,68,69,72,73,76,77,80,81,84,85,88,89,92,93,96,97,100,101,104,105,108,109,112,113,116,117,120,121,124,125,128,129,132,133,136,137,140,141,144,145,148,149,152,153,156,157,160,161,164,165},{0,1,4,5,8,9,12,13,16,17,20,21,24,25,28,29,32,33,36,37,40,41,44,45,48,49,52,53,56,57,60,61,64,65,68,69,72,73,76,77,80,81,84,85,88,89,92,93,96,97,100,101,104,105,108,109,112,113,116,117,120,121,124,125,128,129,132,133,136,137,140,141,144,145,148,149,152,153,156,157,160,161,164,165},{2,3,6,7,10,11,14,15,18,19,22,23,26,27,30,31,34,35,38,39,42,43,46,47,50,51,54,55,58,59,62,63,66,67,70,71,74,75,78,79,82,83,86,87,90,91,94,95,98,99,102,103,106,107,110,111,114,115,118,119,122,123,126,127,130,131,134,135,138,139,142,143,146,147,150,151,154,155,158,159,162,163,166,167},{0,1,4,5,8,9,12,13,16,17,20,21,24,25,28,29,32,33,36,37,40,41,44,45,48,49,52,53,56,57,60,61,64,65,68,69,72,73,76,77,80,81,84,85,88,89,92,93,96,97,100,101,104,105,108,109,112,113,116,117,120,121,124,125,128,129,132,133,136,137,140,141,144,145,148,149,152,153,156,157,160,161,164,165},{0,1,4,5,8,9,12,13,16,17,20,21,24,25,28,29,32,33,36,37,40,41,44,45,48,49,52,53,56,57,60,61,64,65,68,69,72,73,76,77,80,81,84,85,88,89,92,93,96,97,100,101,104,105,108,109,112,113,116,117,120,121,124,125,128,129,132,133,136,137,140,141,144,145,148,149,152,153,156,157,160,161,164,165},{2,3,6,7,10,11,14,15,18,19,22,23,26,27,30,31,34,35,38,39,42,43,46,47,50,51,54,55,58,59,62,63,66,67,70,71,74,75,78,79,82,83,86,87,90,91,94,95,98,99,102,103,106,107,110,111,114,115,118,119,122,123,126,127,130,131,134,135,138,139,142,143,146,147,150,151,154,155,158,159,162,163,166,167},{0,1,4,5,8,9,12,13,16,17,20,21,24,25,28,29,32,33,36,37,40,41,44,45,48,49,52,53,56,57,60,61,64,65,68,69,72,73,76,77,80,81,84,85,88,89,92,93,96,97,100,101,104,105,108,109,112,113,116,117,120,121,124,125,128,129,132,133,136,137,140,141,144,145,148,149,152,153,156,157,160,161,164,165},{0,1,4,5,8,9,12,13,16,17,20,21,24,25,28,29,32,33,36,37,40,41,44,45,48,49,52,53,56,57,60,61,64,65,68,69,72,73,76,77,80,81,84,85,88,89,92,93,96,97,100,101,104,105,108,109,112,113,116,117,120,121,124,125,128,129,132,133,136,137,140,141,144,145,148,149,152,153,156,157,160,161,164,165},{2,3,6,7,10,11,14,15,18,19,22,23,26,27,30,31,34,35,38,39,42,43,46,47,50,51,54,55,58,59,62,63,66,67,70,71,74,75,78,79,82,83,86,87,90,91,94,95,98,99,102,103,106,107,110,111,114,115,118,119,122,123,126,127,130,131,134,135,138,139,142,143,146,147,150,151,154,155,158,159,162,163,166,167},{168,169,170,171},{168,169,170,171},{0,1,4,5,8,9,12,13,16,17,20,21,24,25,28,29,32,33,36,37,40,41,44,45,48,49,52,53,56,57,60,61,64,65,68,69,72,73,76,77,80,81,84,85,88,89,92,93,96,97,100,101,104,105,108,109,112,113,116,117,120,121,124,125,128,129,132,133,136,137,140,141,144,145,148,149,152,153,156,157,160,161,164,165},{0,1,4,5,8,9,12,13,16,17,20,21,24,25,28,29,32,33,36,37,40,41,44,45,48,49,52,53,56,57,60,61,64,65,68,69,72,73,76,77,80,81,84,85,88,89,92,93,96,97,100,101,104,105,108,109,112,113,116,117,120,121,124,125,128,129,132,133,136,137,140,141,144,145,148,149,152,153,156,157,160,161,164,165},{2,3,6,7,10,11,14,15,18,19,22,23,26,27,30,31,34,35,38,39,42,43,46,47,50,51,54,55,58,59,62,63,66,67,70,71,74,75,78,79,82,83,86,87,90,91,94,95,98,99,102,103,106,107,110,111,114,115,118,119,122,123,126,127,130,131,134,135,138,139,142,143,146,147,150,151,154,155,158,159,162,163,166,167},{0,1,4,5,8,9,12,13,16,17,20,21,24,25,28,29,32,33,36,37,40,41,44,45,48,49,52,53,56,57,60,61,64,65,68,69,72,73,76,77,80,81,84,85,88,89,92,93,96,97,100,101,104,105,108,109,112,113,116,117,120,121,124,125,128,129,132,133,136,137,140,141,144,145,148,149,152,153,156,157,160,161,164,165},{2,3,6,7,10,11,14,15,18,19,22,23,26,27,30,31,34,35,38,39,42,43,46,47,50,51,54,55,58,59,62,63,66,67,70,71,74,75,78,79,82,83,86,87,90,91,94,95,98,99,102,103,106,107,110,111,114,115,118,119,122,123,126,127,130,131,134,135,138,139,142,143,146,147,150,151,154,155,158,159,162,163,166,167},{0,1,4,5,8,9,12,13,16,17,20,21,24,25,28,29,32,33,36,37,40,41,44,45,48,49,52,53,56,57,60,61,64,65,68,69,72,73,76,77,80,81,84,85,88,89,92,93,96,97,100,101,104,105,108,109,112,113,116,117,120,121,124,125,128,129,132,133,136,137,140,141,144,145,148,149,152,153,156,157,160,161,164,165},{2,3,6,7,10,11,14,15,18,19,22,23,26,27,30,31,34,35,38,39,42,43,46,47,50,51,54,55,58,59,62,63,66,67,70,71,74,75,78,79,82,83,86,87,90,91,94,95,98,99,102,103,106,107,110,111,114,115,118,119,122,123,126,127,130,131,134,135,138,139,142,143,146,147,150,151,154,155,158,159,162,163,166,167},{0,1,4,5,8,9,12,13,16,17,20,21,24,25,28,29,32,33,36,37,40,41,44,45,48,49,52,53,56,57,60,61,64,65,68,69,72,73,76,77,80,81,84,85,88,89,92,93,96,97,100,101,104,105,108,109,112,113,116,117,120,121,124,125,128,129,132,133,136,137,140,141,144,145,148,149,152,153,156,157,160,161,164,165},{2,3,6,7,10,11,14,15,18,19,22,23,26,27,30,31,34,35,38,39,42,43,46,47,50,51,54,55,58,59,62,63,66,67,70,71,74,75,78,79,82,83,86,87,90,91,94,95,98,99,102,103,106,107,110,111,114,115,118,119,122,123,126,127,130,131,134,135,138,139,142,143,146,147,150,151,154,155,158,159,162,163,166,167},{0,1,4,5,8,9,12,13,16,17,20,21,24,25,28,29,32,33,36,37,40,41,44,45,48,49,52,53,56,57,60,61,64,65,68,69,72,73,76,77,80,81,84,85,88,89,92,93,96,97,100,101,104,105,108,109,112,113,116,117,120,121,124,125,128,129,132,133,136,137,140,141,144,145,148,149,152,153,156,157,160,161,164,165},{2,3,6,7,10,11,14,15,18,19,22,23,26,27,30,31,34,35,38,39,42,43,46,47,50,51,54,55,58,59,62,63,66,67,70,71,74,75,78,79,82,83,86,87,90,91,94,95,98,99,102,103,106,107,110,111,114,115,118,119,122,123,126,127,130,131,134,135,138,139,142,143,146,147,150,151,154,155,158,159,162,163,166,167},{0,1,4,5,8,9,12,13,16,17,20,21,24,25,28,29,32,33,36,37,40,41,44,45,48,49,52,53,56,57,60,61,64,65,68,69,72,73,76,77,80,81,84,85,88,89,92,93,96,97,100,101,104,105,108,109,112,113,116,117,120,121,124,125,128,129,132,133,136,137,140,141,144,145,148,149,152,153,156,157,160,161,164,165},{2,3,6,7,10,11,14,15,18,19,22,23,26,27,30,31,34,35,38,39,42,43,46,47,50,51,54,55,58,59,62,63,66,67,70,71,74,75,78,79,82,83,86,87,90,91,94,95,98,99,102,103,106,107,110,111,114,115,118,119,122,123,126,127,130,131,134,135,138,139,142,143,146,147,150,151,154,155,158,159,162,163,166,167},{0,1,4,5,8,9,12,13,16,17,20,21,24,25,28,29,32,33,36,37,40,41,44,45,48,49,52,53,56,57,60,61,64,65,68,69,72,73,76,77,80,81,84,85,88,89,92,93,96,97,100,101,104,105,108,109,112,113,116,117,120,121,124,125,128,129,132,133,136,137,140,141,144,145,148,149,152,153,156,157,160,161,164,165},{0,1,4,5,8,9,12,13,16,17,20,21,24,25,28,29,32,33,36,37,40,41,44,45,48,49,52,53,56,57,60,61,64,65,68,69,72,73,76,77,80,81,84,85,88,89,92,93,96,97,100,101,104,105,108,109,112,113,116,117,120,121,124,125,128,129,132,133,136,137,140,141,144,145,148,149,152,153,156,157,160,161,164,165},{2,3,6,7,10,11,14,15,18,19,22,23,26,27,30,31,34,35,38,39,42,43,46,47,50,51,54,55,58,59,62,63,66,67,70,71,74,75,78,79,82,83,86,87,90,91,94,95,98,99,102,103,106,107,110,111,114,115,118,119,122,123,126,127,130,131,134,135,138,139,142,143,146,147,150,151,154,155,158,159,162,163,166,167},{0,1,4,5,8,9,12,13,16,17,20,21,24,25,28,29,32,33,36,37,40,41,44,45,48,49,52,53,56,57,60,61,64,65,68,69,72,73,76,77,80,81,84,85,88,89,92,93,96,97,100,101,104,105,108,109,112,113,116,117,120,121,124,125,128,129,132,133,136,137,140,141,144,145,148,149,152,153,156,157,160,161,164,165},{2,3,6,7,10,11,14,15,18,19,22,23,26,27,30,31,34,35,38,39,42,43,46,47,50,51,54,55,58,59,62,63,66,67,70,71,74,75,78,79,82,83,86,87,90,91,94,95,98,99,102,103,106,107,110,111,114,115,118,119,122,123,126,127,130,131,134,135,138,139,142,143,146,147,150,151,154,155,158,159,162,163,166,167},{0,1,4,5,8,9,12,13,16,17,20,21,24,25,28,29,32,33,36,37,40,41,44,45,48,49,52,53,56,57,60,61,64,65,68,69,72,73,76,77,80,81,84,85,88,89,92,93,96,97,100,101,104,105,108,109,112,113,116,117,120,121,124,125,128,129,132,133,136,137,140,141,144,145,148,149,152,153,156,157,160,161,164,165},{2,3,6,7,10,11,14,15,18,19,22,23,26,27,30,31,34,35,38,39,42,43,46,47,50,51,54,55,58,59,62,63,66,67,70,71,74,75,78,79,82,83,86,87,90,91,94,95,98,99,102,103,106,107,110,111,114,115,118,119,122,123,126,127,130,131,134,135,138,139,142,143,146,147,150,151,154,155,158,159,162,163,166,167},{0,1,4,5,8,9,12,13,16,17,20,21,24,25,28,29,32,33,36,37,40,41,44,45,48,49,52,53,56,57,60,61,64,65,68,69,72,73,76,77,80,81,84,85,88,89,92,93,96,97,100,101,104,105,108,109,112,113,116,117,120,121,124,125,128,129,132,133,136,137,140,141,144,145,148,149,152,153,156,157,160,161,164,165},{2,3,6,7,10,11,14,15,18,19,22,23,26,27,30,31,34,35,38,39,42,43,46,47,50,51,54,55,58,59,62,63,66,67,70,71,74,75,78,79,82,83,86,87,90,91,94,95,98,99,102,103,106,107,110,111,114,115,118,119,122,123,126,127,130,131,134,135,138,139,142,143,146,147,150,151,154,155,158,159,162,163,166,167},{2,3,6,7,10,11,14,15,18,19,22,23,26,27,30,31,34,35,38,39,42,43,46,47,50,51,54,55,58,59,62,63,66,67,70,71,74,75,78,79,82,83,86,87,90,91,94,95,98,99,102,103,106,107,110,111,114,115,118,119,122,123,126,127,130,131,134,135,138,139,142,143,146,147,150,151,154,155,158,159,162,163,166,167},{2,3,6,7,10,11,14,15,18,19,22,23,26,27,30,31,34,35,38,39,42,43,46,47,50,51,54,55,58,59,62,63,66,67,70,71,74,75,78,79,82,83,86,87,90,91,94,95,98,99,102,103,106,107,110,111,114,115,118,119,122,123,126,127,130,131,134,135,138,139,142,143,146,147,150,151,154,155,158,159,162,163,166,167},{168,169,170,171},{0,1,4,5,8,9,12,13,16,17,20,21,24,25,28,29,32,33,36,37,40,41,44,45,48,49,52,53,56,57,60,61,64,65,68,69,72,73,76,77,80,81,84,85,88,89,92,93,96,97,100,101,104,105,108,109,112,113,116,117,120,121,124,125,128,129,132,133,136,137,140,141,144,145,148,149,152,153,156,157,160,161,164,165},{2,3,6,7,10,11,14,15,18,19,22,23,26,27,30,31,34,35,38,39,42,43,46,47,50,51,54,55,58,59,62,63,66,67,70,71,74,75,78,79,82,83,86,87,90,91,94,95,98,99,102,103,106,107,110,111,114,115,118,119,122,123,126,127,130,131,134,135,138,139,142,143,146,147,150,151,154,155,158,159,162,163,166,167},{0,1,4,5,8,9,12,13,16,17,20,21,24,25,28,29,32,33,36,37,40,41,44,45,48,49,52,53,56,57,60,61,64,65,68,69,72,73,76,77,80,81,84,85,88,89,92,93,96,97,100,101,104,105,108,109,112,113,116,117,120,121,124,125,128,129,132,133,136,137,140,141,144,145,148,149,152,153,156,157,160,161,164,165},{2,3,6,7,10,11,14,15,18,19,22,23,26,27,30,31,34,35,38,39,42,43,46,47,50,51,54,55,58,59,62,63,66,67,70,71,74,75,78,79,82,83,86,87,90,91,94,95,98,99,102,103,106,107,110,111,114,115,118,119,122,123,126,127,130,131,134,135,138,139,142,143,146,147,150,151,154,155,158,159,162,163,166,167},{0,1,4,5,8,9,12,13,16,17,20,21,24,25,28,29,32,33,36,37,40,41,44,45,48,49,52,53,56,57,60,61,64,65,68,69,72,73,76,77,80,81,84,85,88,89,92,93,96,97,100,101,104,105,108,109,112,113,116,117,120,121,124,125,128,129,132,133,136,137,140,141,144,145,148,149,152,153,156,157,160,161,164,165},{2,3,6,7,10,11,14,15,18,19,22,23,26,27,30,31,34,35,38,39,42,43,46,47,50,51,54,55,58,59,62,63,66,67,70,71,74,75,78,79,82,83,86,87,90,91,94,95,98,99,102,103,106,107,110,111,114,115,118,119,122,123,126,127,130,131,134,135,138,139,142,143,146,147,150,151,154,155,158,159,162,163,166,167},{0,1,4,5,8,9,12,13,16,17,20,21,24,25,28,29,32,33,36,37,40,41,44,45,48,49,52,53,56,57,60,61,64,65,68,69,72,73,76,77,80,81,84,85,88,89,92,93,96,97,100,101,104,105,108,109,112,113,116,117,120,121,124,125,128,129,132,133,136,137,140,141,144,145,148,149,152,153,156,157,160,161,164,165},{2,3,6,7,10,11,14,15,18,19,22,23,26,27,30,31,34,35,38,39,42,43,46,47,50,51,54,55,58,59,62,63,66,67,70,71,74,75,78,79,82,83,86,87,90,91,94,95,98,99,102,103,106,107,110,111,114,115,118,119,122,123,126,127,130,131,134,135,138,139,142,143,146,147,150,151,154,155,158,159,162,163,166,167},{0,1,4,5,8,9,12,13,16,17,20,21,24,25,28,29,32,33,36,37,40,41,44,45,48,49,52,53,56,57,60,61,64,65,68,69,72,73,76,77,80,81,84,85,88,89,92,93,96,97,100,101,104,105,108,109,112,113,116,117,120,121,124,125,128,129,132,133,136,137,140,141,144,145,148,149,152,153,156,157,160,161,164,165},{2,3,6,7,10,11,14,15,18,19,22,23,26,27,30,31,34,35,38,39,42,43,46,47,50,51,54,55,58,59,62,63,66,67,70,71,74,75,78,79,82,83,86,87,90,91,94,95,98,99,102,103,106,107,110,111,114,115,118,119,122,123,126,127,130,131,134,135,138,139,142,143,146,147,150,151,154,155,158,159,162,163,166,167},{0,1,4,5,8,9,12,13,16,17,20,21,24,25,28,29,32,33,36,37,40,41,44,45,48,49,52,53,56,57,60,61,64,65,68,69,72,73,76,77,80,81,84,85,88,89,92,93,96,97,100,101,104,105,108,109,112,113,116,117,120,121,124,125,128,129,132,133,136,137,140,141,144,145,148,149,152,153,156,157,160,161,164,165},{2,3,6,7,10,11,14,15,18,19,22,23,26,27,30,31,34,35,38,39,42,43,46,47,50,51,54,55,58,59,62,63,66,67,70,71,74,75,78,79,82,83,86,87,90,91,94,95,98,99,102,103,106,107,110,111,114,115,118,119,122,123,126,127,130,131,134,135,138,139,142,143,146,147,150,151,154,155,158,159,162,163,166,167},{0,1,4,5,8,9,12,13,16,17,20,21,24,25,28,29,32,33,36,37,40,41,44,45,48,49,52,53,56,57,60,61,64,65,68,69,72,73,76,77,80,81,84,85,88,89,92,93,96,97,100,101,104,105,108,109,112,113,116,117,120,121,124,125,128,129,132,133,136,137,140,141,144,145,148,149,152,153,156,157,160,161,164,165},{0,1,4,5,8,9,12,13,16,17,20,21,24,25,28,29,32,33,36,37,40,41,44,45,48,49,52,53,56,57,60,61,64,65,68,69,72,73,76,77,80,81,84,85,88,89,92,93,96,97,100,101,104,105,108,109,112,113,116,117,120,121,124,125,128,129,132,133,136,137,140,141,144,145,148,149,152,153,156,157,160,161,164,165},{2,3,6,7,10,11,14,15,18,19,22,23,26,27,30,31,34,35,38,39,42,43,46,47,50,51,54,55,58,59,62,63,66,67,70,71,74,75,78,79,82,83,86,87,90,91,94,95,98,99,102,103,106,107,110,111,114,115,118,119,122,123,126,127,130,131,134,135,138,139,142,143,146,147,150,151,154,155,158,159,162,163,166,167},{0,1,4,5,8,9,12,13,16,17,20,21,24,25,28,29,32,33,36,37,40,41,44,45,48,49,52,53,56,57,60,61,64,65,68,69,72,73,76,77,80,81,84,85,88,89,92,93,96,97,100,101,104,105,108,109,112,113,116,117,120,121,124,125,128,129,132,133,136,137,140,141,144,145,148,149,152,153,156,157,160,161,164,165},{2,3,6,7,10,11,14,15,18,19,22,23,26,27,30,31,34,35,38,39,42,43,46,47,50,51,54,55,58,59,62,63,66,67,70,71,74,75,78,79,82,83,86,87,90,91,94,95,98,99,102,103,106,107,110,111,114,115,118,119,122,123,126,127,130,131,134,135,138,139,142,143,146,147,150,151,154,155,158,159,162,163,166,167},{0,1,4,5,8,9,12,13,16,17,20,21,24,25,28,29,32,33,36,37,40,41,44,45,48,49,52,53,56,57,60,61,64,65,68,69,72,73,76,77,80,81,84,85,88,89,92,93,96,97,100,101,104,105,108,109,112,113,116,117,120,121,124,125,128,129,132,133,136,137,140,141,144,145,148,149,152,153,156,157,160,161,164,165},{0,1,4,5,8,9,12,13,16,17,20,21,24,25,28,29,32,33,36,37,40,41,44,45,48,49,52,53,56,57,60,61,64,65,68,69,72,73,76,77,80,81,84,85,88,89,92,93,96,97,100,101,104,105,108,109,112,113,116,117,120,121,124,125,128,129,132,133,136,137,140,141,144,145,148,149,152,153,156,157,160,161,164,165},{2,3,6,7,10,11,14,15,18,19,22,23,26,27,30,31,34,35,38,39,42,43,46,47,50,51,54,55,58,59,62,63,66,67,70,71,74,75,78,79,82,83,86,87,90,91,94,95,98,99,102,103,106,107,110,111,114,115,118,119,122,123,126,127,130,131,134,135,138,139,142,143,146,147,150,151,154,155,158,159,162,163,166,167},{0,1,4,5,8,9,12,13,16,17,20,21,24,25,28,29,32,33,36,37,40,41,44,45,48,49,52,53,56,57,60,61,64,65,68,69,72,73,76,77,80,81,84,85,88,89,92,93,96,97,100,101,104,105,108,109,112,113,116,117,120,121,124,125,128,129,132,133,136,137,140,141,144,145,148,149,152,153,156,157,160,161,164,165},{0,1,4,5,8,9,12,13,16,17,20,21,24,25,28,29,32,33,36,37,40,41,44,45,48,49,52,53,56,57,60,61,64,65,68,69,72,73,76,77,80,81,84,85,88,89,92,93,96,97,100,101,104,105,108,109,112,113,116,117,120,121,124,125,128,129,132,133,136,137,140,141,144,145,148,149,152,153,156,157,160,161,164,165},{2,3,6,7,10,11,14,15,18,19,22,23,26,27,30,31,34,35,38,39,42,43,46,47,50,51,54,55,58,59,62,63,66,67,70,71,74,75,78,79,82,83,86,87,90,91,94,95,98,99,102,103,106,107,110,111,114,115,118,119,122,123,126,127,130,131,134,135,138,139,142,143,146,147,150,151,154,155,158,159,162,163,166,167},{0,1,4,5,8,9,12,13,16,17,20,21,24,25,28,29,32,33,36,37,40,41,44,45,48,49,52,53,56,57,60,61,64,65,68,69,72,73,76,77,80,81,84,85,88,89,92,93,96,97,100,101,104,105,108,109,112,113,116,117,120,121,124,125,128,129,132,133,136,137,140,141,144,145,148,149,152,153,156,157,160,161,164,165},{0,1,4,5,8,9,12,13,16,17,20,21,24,25,28,29,32,33,36,37,40,41,44,45,48,49,52,53,56,57,60,61,64,65,68,69,72,73,76,77,80,81,84,85,88,89,92,93,96,97,100,101,104,105,108,109,112,113,116,117,120,121,124,125,128,129,132,133,136,137,140,141,144,145,148,149,152,153,156,157,160,161,164,165},{2,3,6,7,10,11,14,15,18,19,22,23,26,27,30,31,34,35,38,39,42,43,46,47,50,51,54,55,58,59,62,63,66,67,70,71,74,75,78,79,82,83,86,87,90,91,94,95,98,99,102,103,106,107,110,111,114,115,118,119,122,123,126,127,130,131,134,135,138,139,142,143,146,147,150,151,154,155,158,159,162,163,166,167},{0,1,4,5,8,9,12,13,16,17,20,21,24,25,28,29,32,33,36,37,40,41,44,45,48,49,52,53,56,57,60,61,64,65,68,69,72,73,76,77,80,81,84,85,88,89,92,93,96,97,100,101,104,105,108,109,112,113,116,117,120,121,124,125,128,129,132,133,136,137,140,141,144,145,148,149,152,153,156,157,160,161,164,165},{0,1,4,5,8,9,12,13,16,17,20,21,24,25,28,29,32,33,36,37,40,41,44,45,48,49,52,53,56,57,60,61,64,65,68,69,72,73,76,77,80,81,84,85,88,89,92,93,96,97,100,101,104,105,108,109,112,113,116,117,120,121,124,125,128,129,132,133,136,137,140,141,144,145,148,149,152,153,156,157,160,161,164,165},{2,3,6,7,10,11,14,15,18,19,22,23,26,27,30,31,34,35,38,39,42,43,46,47,50,51,54,55,58,59,62,63,66,67,70,71,74,75,78,79,82,83,86,87,90,91,94,95,98,99,102,103,106,107,110,111,114,115,118,119,122,123,126,127,130,131,134,135,138,139,142,143,146,147,150,151,154,155,158,159,162,163,166,167},{0,1,4,5,8,9,12,13,16,17,20,21,24,25,28,29,32,33,36,37,40,41,44,45,48,49,52,53,56,57,60,61,64,65,68,69,72,73,76,77,80,81,84,85,88,89,92,93,96,97,100,101,104,105,108,109,112,113,116,117,120,121,124,125,128,129,132,133,136,137,140,141,144,145,148,149,152,153,156,157,160,161,164,165},{2,3,6,7,10,11,14,15,18,19,22,23,26,27,30,31,34,35,38,39,42,43,46,47,50,51,54,55,58,59,62,63,66,67,70,71,74,75,78,79,82,83,86,87,90,91,94,95,98,99,102,103,106,107,110,111,114,115,118,119,122,123,126,127,130,131,134,135,138,139,142,143,146,147,150,151,154,155,158,159,162,163,166,167},{0,1,4,5,8,9,12,13,16,17,20,21,24,25,28,29,32,33,36,37,40,41,44,45,48,49,52,53,56,57,60,61,64,65,68,69,72,73,76,77,80,81,84,85,88,89,92,93,96,97,100,101,104,105,108,109,112,113,116,117,120,121,124,125,128,129,132,133,136,137,140,141,144,145,148,149,152,153,156,157,160,161,164,165},{0,1,4,5,8,9,12,13,16,17,20,21,24,25,28,29,32,33,36,37,40,41,44,45,48,49,52,53,56,57,60,61,64,65,68,69,72,73,76,77,80,81,84,85,88,89,92,93,96,97,100,101,104,105,108,109,112,113,116,117,120,121,124,125,128,129,132,133,136,137,140,141,144,145,148,149,152,153,156,157,160,161,164,165},{2,3,6,7,10,11,14,15,18,19,22,23,26,27,30,31,34,35,38,39,42,43,46,47,50,51,54,55,58,59,62,63,66,67,70,71,74,75,78,79,82,83,86,87,90,91,94,95,98,99,102,103,106,107,110,111,114,115,118,119,122,123,126,127,130,131,134,135,138,139,142,143,146,147,150,151,154,155,158,159,162,163,166,167},{0,1,4,5,8,9,12,13,16,17,20,21,24,25,28,29,32,33,36,37,40,41,44,45,48,49,52,53,56,57,60,61,64,65,68,69,72,73,76,77,80,81,84,85,88,89,92,93,96,97,100,101,104,105,108,109,112,113,116,117,120,121,124,125,128,129,132,133,136,137,140,141,144,145,148,149,152,153,156,157,160,161,164,165},{0,1,4,5,8,9,12,13,16,17,20,21,24,25,28,29,32,33,36,37,40,41,44,45,48,49,52,53,56,57,60,61,64,65,68,69,72,73,76,77,80,81,84,85,88,89,92,93,96,97,100,101,104,105,108,109,112,113,116,117,120,121,124,125,128,129,132,133,136,137,140,141,144,145,148,149,152,153,156,157,160,161,164,165},{2,3,6,7,10,11,14,15,18,19,22,23,26,27,30,31,34,35,38,39,42,43,46,47,50,51,54,55,58,59,62,63,66,67,70,71,74,75,78,79,82,83,86,87,90,91,94,95,98,99,102,103,106,107,110,111,114,115,118,119,122,123,126,127,130,131,134,135,138,139,142,143,146,147,150,151,154,155,158,159,162,163,166,167},{0,1,4,5,8,9,12,13,16,17,20,21,24,25,28,29,32,33,36,37,40,41,44,45,48,49,52,53,56,57,60,61,64,65,68,69,72,73,76,77,80,81,84,85,88,89,92,93,96,97,100,101,104,105,108,109,112,113,116,117,120,121,124,125,128,129,132,133,136,137,140,141,144,145,148,149,152,153,156,157,160,161,164,165},{0,1,4,5,8,9,12,13,16,17,20,21,24,25,28,29,32,33,36,37,40,41,44,45,48,49,52,53,56,57,60,61,64,65,68,69,72,73,76,77,80,81,84,85,88,89,92,93,96,97,100,101,104,105,108,109,112,113,116,117,120,121,124,125,128,129,132,133,136,137,140,141,144,145,148,149,152,153,156,157,160,161,164,165},{2,3,6,7,10,11,14,15,18,19,22,23,26,27,30,31,34,35,38,39,42,43,46,47,50,51,54,55,58,59,62,63,66,67,70,71,74,75,78,79,82,83,86,87,90,91,94,95,98,99,102,103,106,107,110,111,114,115,118,119,122,123,126,127,130,131,134,135,138,139,142,143,146,147,150,151,154,155,158,159,162,163,166,167},{0,1,4,5,8,9,12,13,16,17,20,21,24,25,28,29,32,33,36,37,40,41,44,45,48,49,52,53,56,57,60,61,64,65,68,69,72,73,76,77,80,81,84,85,88,89,92,93,96,97,100,101,104,105,108,109,112,113,116,117,120,121,124,125,128,129,132,133,136,137,140,141,144,145,148,149,152,153,156,157,160,161,164,165},{2,3,6,7,10,11,14,15,18,19,22,23,26,27,30,31,34,35,38,39,42,43,46,47,50,51,54,55,58,59,62,63,66,67,70,71,74,75,78,79,82,83,86,87,90,91,94,95,98,99,102,103,106,107,110,111,114,115,118,119,122,123,126,127,130,131,134,135,138,139,142,143,146,147,150,151,154,155,158,159,162,163,166,167},{0,1,4,5,8,9,12,13,16,17,20,21,24,25,28,29,32,33,36,37,40,41,44,45,48,49,52,53,56,57,60,61,64,65,68,69,72,73,76,77,80,81,84,85,88,89,92,93,96,97,100,101,104,105,108,109,112,113,116,117,120,121,124,125,128,129,132,133,136,137,140,141,144,145,148,149,152,153,156,157,160,161,164,165},{2,3,6,7,10,11,14,15,18,19,22,23,26,27,30,31,34,35,38,39,42,43,46,47,50,51,54,55,58,59,62,63,66,67,70,71,74,75,78,79,82,83,86,87,90,91,94,95,98,99,102,103,106,107,110,111,114,115,118,119,122,123,126,127,130,131,134,135,138,139,142,143,146,147,150,151,154,155,158,159,162,163,166,167},{0,1,4,5,8,9,12,13,16,17,20,21,24,25,28,29,32,33,36,37,40,41,44,45,48,49,52,53,56,57,60,61,64,65,68,69,72,73,76,77,80,81,84,85,88,89,92,93,96,97,100,101,104,105,108,109,112,113,116,117,120,121,124,125,128,129,132,133,136,137,140,141,144,145,148,149,152,153,156,157,160,161,164,165},{2,3,6,7,10,11,14,15,18,19,22,23,26,27,30,31,34,35,38,39,42,43,46,47,50,51,54,55,58,59,62,63,66,67,70,71,74,75,78,79,82,83,86,87,90,91,94,95,98,99,102,103,106,107,110,111,114,115,118,119,122,123,126,127,130,131,134,135,138,139,142,143,146,147,150,151,154,155,158,159,162,163,166,167},{0,1,4,5,8,9,12,13,16,17,20,21,24,25,28,29,32,33,36,37,40,41,44,45,48,49,52,53,56,57,60,61,64,65,68,69,72,73,76,77,80,81,84,85,88,89,92,93,96,97,100,101,104,105,108,109,112,113,116,117,120,121,124,125,128,129,132,133,136,137,140,141,144,145,148,149,152,153,156,157,160,161,164,165},{2,3,6,7,10,11,14,15,18,19,22,23,26,27,30,31,34,35,38,39,42,43,46,47,50,51,54,55,58,59,62,63,66,67,70,71,74,75,78,79,82,83,86,87,90,91,94,95,98,99,102,103,106,107,110,111,114,115,118,119,122,123,126,127,130,131,134,135,138,139,142,143,146,147,150,151,154,155,158,159,162,163,166,167},{0,1,4,5,8,9,12,13,16,17,20,21,24,25,28,29,32,33,36,37,40,41,44,45,48,49,52,53,56,57,60,61,64,65,68,69,72,73,76,77,80,81,84,85,88,89,92,93,96,97,100,101,104,105,108,109,112,113,116,117,120,121,124,125,128,129,132,133,136,137,140,141,144,145,148,149,152,153,156,157,160,161,164,165},{2,3,6,7,10,11,14,15,18,19,22,23,26,27,30,31,34,35,38,39,42,43,46,47,50,51,54,55,58,59,62,63,66,67,70,71,74,75,78,79,82,83,86,87,90,91,94,95,98,99,102,103,106,107,110,111,114,115,118,119,122,123,126,127,130,131,134,135,138,139,142,143,146,147,150,151,154,155,158,159,162,163,166,167},{0,1,4,5,8,9,12,13,16,17,20,21,24,25,28,29,32,33,36,37,40,41,44,45,48,49,52,53,56,57,60,61,64,65,68,69,72,73,76,77,80,81,84,85,88,89,92,93,96,97,100,101,104,105,108,109,112,113,116,117,120,121,124,125,128,129,132,133,136,137,140,141,144,145,148,149,152,153,156,157,160,161,164,165},{2,3,6,7,10,11,14,15,18,19,22,23,26,27,30,31,34,35,38,39,42,43,46,47,50,51,54,55,58,59,62,63,66,67,70,71,74,75,78,79,82,83,86,87,90,91,94,95,98,99,102,103,106,107,110,111,114,115,118,119,122,123,126,127,130,131,134,135,138,139,142,143,146,147,150,151,154,155,158,159,162,163,166,167},{0,1,4,5,8,9,12,13,16,17,20,21,24,25,28,29,32,33,36,37,40,41,44,45,48,49,52,53,56,57,60,61,64,65,68,69,72,73,76,77,80,81,84,85,88,89,92,93,96,97,100,101,104,105,108,109,112,113,116,117,120,121,124,125,128,129,132,133,136,137,140,141,144,145,148,149,152,153,156,157,160,161,164,165},{2,3,6,7,10,11,14,15,18,19,22,23,26,27,30,31,34,35,38,39,42,43,46,47,50,51,54,55,58,59,62,63,66,67,70,71,74,75,78,79,82,83,86,87,90,91,94,95,98,99,102,103,106,107,110,111,114,115,118,119,122,123,126,127,130,131,134,135,138,139,142,143,146,147,150,151,154,155,158,159,162,163,166,167},{0,1,4,5,8,9,12,13,16,17,20,21,24,25,28,29,32,33,36,37,40,41,44,45,48,49,52,53,56,57,60,61,64,65,68,69,72,73,76,77,80,81,84,85,88,89,92,93,96,97,100,101,104,105,108,109,112,113,116,117,120,121,124,125,128,129,132,133,136,137,140,141,144,145,148,149,152,153,156,157,160,161,164,165},{2,3,6,7,10,11,14,15,18,19,22,23,26,27,30,31,34,35,38,39,42,43,46,47,50,51,54,55,58,59,62,63,66,67,70,71,74,75,78,79,82,83,86,87,90,91,94,95,98,99,102,103,106,107,110,111,114,115,118,119,122,123,126,127,130,131,134,135,138,139,142,143,146,147,150,151,154,155,158,159,162,163,166,167},{0,1,4,5,8,9,12,13,16,17,20,21,24,25,28,29,32,33,36,37,40,41,44,45,48,49,52,53,56,57,60,61,64,65,68,69,72,73,76,77,80,81,84,85,88,89,92,93,96,97,100,101,104,105,108,109,112,113,116,117,120,121,124,125,128,129,132,133,136,137,140,141,144,145,148,149,152,153,156,157,160,161,164,165},{2,3,6,7,10,11,14,15,18,19,22,23,26,27,30,31,34,35,38,39,42,43,46,47,50,51,54,55,58,59,62,63,66,67,70,71,74,75,78,79,82,83,86,87,90,91,94,95,98,99,102,103,106,107,110,111,114,115,118,119,122,123,126,127,130,131,134,135,138,139,142,143,146,147,150,151,154,155,158,159,162,163,166,167},{2,3,6,7,10,11,14,15,18,19,22,23,26,27,30,31,34,35,38,39,42,43,46,47,50,51,54,55,58,59,62,63,66,67,70,71,74,75,78,79,82,83,86,87,90,91,94,95,98,99,102,103,106,107,110,111,114,115,118,119,122,123,126,127,130,131,134,135,138,139,142,143,146,147,150,151,154,155,158,159,162,163,166,167},{0,1,4,5,8,9,12,13,16,17,20,21,24,25,28,29,32,33,36,37,40,41,44,45,48,49,52,53,56,57,60,61,64,65,68,69,72,73,76,77,80,81,84,85,88,89,92,93,96,97,100,101,104,105,108,109,112,113,116,117,120,121,124,125,128,129,132,133,136,137,140,141,144,145,148,149,152,153,156,157,160,161,164,165},{2,3,6,7,10,11,14,15,18,19,22,23,26,27,30,31,34,35,38,39,42,43,46,47,50,51,54,55,58,59,62,63,66,67,70,71,74,75,78,79,82,83,86,87,90,91,94,95,98,99,102,103,106,107,110,111,114,115,118,119,122,123,126,127,130,131,134,135,138,139,142,143,146,147,150,151,154,155,158,159,162,163,166,167},{0,1,4,5,8,9,12,13,16,17,20,21,24,25,28,29,32,33,36,37,40,41,44,45,48,49,52,53,56,57,60,61,64,65,68,69,72,73,76,77,80,81,84,85,88,89,92,93,96,97,100,101,104,105,108,109,112,113,116,117,120,121,124,125,128,129,132,133,136,137,140,141,144,145,148,149,152,153,156,157,160,161,164,165},{2,3,6,7,10,11,14,15,18,19,22,23,26,27,30,31,34,35,38,39,42,43,46,47,50,51,54,55,58,59,62,63,66,67,70,71,74,75,78,79,82,83,86,87,90,91,94,95,98,99,102,103,106,107,110,111,114,115,118,119,122,123,126,127,130,131,134,135,138,139,142,143,146,147,150,151,154,155,158,159,162,163,166,167},{0,1,4,5,8,9,12,13,16,17,20,21,24,25,28,29,32,33,36,37,40,41,44,45,48,49,52,53,56,57,60,61,64,65,68,69,72,73,76,77,80,81,84,85,88,89,92,93,96,97,100,101,104,105,108,109,112,113,116,117,120,121,124,125,128,129,132,133,136,137,140,141,144,145,148,149,152,153,156,157,160,161,164,165},{2,3,6,7,10,11,14,15,18,19,22,23,26,27,30,31,34,35,38,39,42,43,46,47,50,51,54,55,58,59,62,63,66,67,70,71,74,75,78,79,82,83,86,87,90,91,94,95,98,99,102,103,106,107,110,111,114,115,118,119,122,123,126,127,130,131,134,135,138,139,142,143,146,147,150,151,154,155,158,159,162,163,166,167},{0,1,4,5,8,9,12,13,16,17,20,21,24,25,28,29,32,33,36,37,40,41,44,45,48,49,52,53,56,57,60,61,64,65,68,69,72,73,76,77,80,81,84,85,88,89,92,93,96,97,100,101,104,105,108,109,112,113,116,117,120,121,124,125,128,129,132,133,136,137,140,141,144,145,148,149,152,153,156,157,160,161,164,165},{2,3,6,7,10,11,14,15,18,19,22,23,26,27,30,31,34,35,38,39,42,43,46,47,50,51,54,55,58,59,62,63,66,67,70,71,74,75,78,79,82,83,86,87,90,91,94,95,98,99,102,103,106,107,110,111,114,115,118,119,122,123,126,127,130,131,134,135,138,139,142,143,146,147,150,151,154,155,158,159,162,163,166,167},{0,1,4,5,8,9,12,13,16,17,20,21,24,25,28,29,32,33,36,37,40,41,44,45,48,49,52,53,56,57,60,61,64,65,68,69,72,73,76,77,80,81,84,85,88,89,92,93,96,97,100,101,104,105,108,109,112,113,116,117,120,121,124,125,128,129,132,133,136,137,140,141,144,145,148,149,152,153,156,157,160,161,164,165},{2,3,6,7,10,11,14,15,18,19,22,23,26,27,30,31,34,35,38,39,42,43,46,47,50,51,54,55,58,59,62,63,66,67,70,71,74,75,78,79,82,83,86,87,90,91,94,95,98,99,102,103,106,107,110,111,114,115,118,119,122,123,126,127,130,131,134,135,138,139,142,143,146,147,150,151,154,155,158,159,162,163,166,167}};   // allowed source nodes per class
packet_size    = {1,2,1,1,1,2,1,1,1,1,2,1,1,1,1,2,1,1,1,2,1,1,1,1,2,1,1,1,1,2,1,1,1,2,1,1,1,1,2,1,1,1,1,1,2,1,1,1,2,1,1,2,1,1,1,2,1,1,2,1,1,1,2,1,1,1,2,1,1,1,1,1,1,1,1,1,1,1,1,1,2,1,1,1,1,1,1,1,1,1,1,1,1,1,2,1,1,1,1,1,1,1,1,1,1,1,2,1,1,1,1,1,1,1,1,1,2,2,1,1,1,1,1,1,1,1,1,1,1};
injection_rate = {0.0002695,0.0002695,0.0002695,7.7e-05,7.7e-05,7.7e-05,7.7e-05,7.7e-05,3.85e-05,3.85e-05,3.85e-05,3.85e-05,3.85e-05,3.85e-05,9.625e-05,9.625e-05,9.625e-05,2.75e-05,2.75e-05,2.75e-05,2.75e-05,2.75e-05,1.375e-05,1.375e-05,1.375e-05,1.375e-05,1.375e-05,1.375e-05,2.063e-05,2.063e-05,2.063e-05,6.88e-06,6.88e-06,6.88e-06,6.88e-06,6.88e-06,8.1e-05,8.1e-05,8.1e-05,8.1e-05,4.05e-05,4.05e-05,4.05e-05,4.05e-05,4.05e-05,4.05e-05,1.35e-05,1.35e-05,1.35e-05,1.35e-05,1.35e-05,1.35e-05,1.35e-05,7.5e-05,7.5e-05,7.5e-05,7.5e-05,1.5e-05,1.5e-05,1.5e-05,4.5e-05,4.5e-05,4.5e-05,4.5e-05,3.15e-05,3.15e-05,3.15e-05,3.15e-05,1.35e-05,1.35e-05,3.3e-05,3.3e-05,3.3e-05,1.65e-05,1.65e-05,1.65e-05,1.65e-05,1.65e-05,5.5e-06,5.5e-06,5.5e-06,5.5e-06,5.5e-06,5.5e-06,2.7e-05,2.7e-05,2.7e-05,1.35e-05,1.35e-05,1.35e-05,1.35e-05,1.35e-05,4.5e-06,4.5e-06,4.5e-06,4.5e-06,4.5e-06,4.5e-06,1.05e-05,1.05e-05,5.25e-06,5.25e-06,5.25e-06,5.25e-06,1.75e-06,1.75e-06,1.75e-06,1.75e-06,1.05e-05,1.05e-05,5.25e-06,5.25e-06,5.25e-06,5.25e-06,1.75e-06,1.75e-06,1.75e-06,1.75e-06,1.75e-06,9e-06,9e-06,4.5e-06,4.5e-06,4.5e-06,4.5e-06,1.5e-06,1.5e-06,1.5e-06,1.5e-06};       // per-message rates derived from full flows
[...]
	minimum = 12 (1 samples)
	maximum = 52 (1 samples)
Flit latency average = 31 (1 samples)
	minimum = 12 (1 samples)
	maximum = 52 (1 samples)
Fragmentation average = 0 (1 samples)
	minimum = 0 (1 samples)
	maximum = 0 (1 samples)
Injected packet rate average = 5.81395e-06 (1 samples)
	minimum = 0 (1 samples)
	maximum = 0.000142857 (1 samples)
Accepted packet rate average = 5.81395e-06 (1 samples)
	minimum = 0 (1 samples)
	maximum = 0.001 (1 samples)
Injected flit rate average = 5.81395e-06 (1 samples)
	minimum = 0 (1 samples)
	maximum = 0.000142857 (1 samples)
Accepted flit rate average = 5.81395e-06 (1 samples)
	minimum = 0 (1 samples)
	maximum = 0.001 (1 samples)
Injected packet size average = 1 (1 samples)
Accepted packet size average = 1 (1 samples)
Hops average = 5.71429 (1 samples)
====== Traffic class 109 ======
Packet latency average = 32.4 (1 samples)
	minimum = 22 (1 samples)
	maximum = 47 (1 samples)
Network latency average = 32.4 (1 samples)
	minimum = 22 (1 samples)
	maximum = 47 (1 samples)
Flit latency average = 32.4 (1 samples)
	minimum = 22 (1 samples)
	maximum = 47 (1 samples)
Fragmentation average = 0 (1 samples)
	minimum = 0 (1 samples)
	maximum = 0 (1 samples)
Injected packet rate average = 4.15282e-06 (1 samples)
	minimum = 0 (1 samples)
	maximum = 0.000142857 (1 samples)
Accepted packet rate average = 4.15282e-06 (1 samples)
	minimum = 0 (1 samples)
	maximum = 0.000714286 (1 samples)
Injected flit rate average = 4.15282e-06 (1 samples)
	minimum = 0 (1 samples)
	maximum = 0.000142857 (1 samples)
Accepted flit rate average = 4.15282e-06 (1 samples)
	minimum = 0 (1 samples)
	maximum = 0.000714286 (1 samples)
Injected packet size average = 1 (1 samples)
Accepted packet size average = 1 (1 samples)
Hops average = 6 (1 samples)
====== Traffic class 110 ======
Packet latency average = 48.6667 (1 samples)
	minimum = 37 (1 samples)
	maximum = 57 (1 samples)
Network latency average = 48.6667 (1 samples)
	minimum = 37 (1 samples)
	maximum = 57 (1 samples)
Flit latency average = 48.6667 (1 samples)
	minimum = 37 (1 samples)
	maximum = 57 (1 samples)
Fragmentation average = 0 (1 samples)
	minimum = 0 (1 samples)
	maximum = 0 (1 samples)
Injected packet rate average = 2.49169e-06 (1 samples)
	minimum = 0 (1 samples)
	maximum = 0.000142857 (1 samples)
Accepted packet rate average = 2.49169e-06 (1 samples)
	minimum = 0 (1 samples)
	maximum = 0.000428571 (1 samples)
Injected flit rate average = 2.49169e-06 (1 samples)
	minimum = 0 (1 samples)
	maximum = 0.000142857 (1 samples)
Accepted flit rate average = 2.49169e-06 (1 samples)
	minimum = 0 (1 samples)
	maximum = 0.000428571 (1 samples)
Injected packet size average = 1 (1 samples)
Accepted packet size average = 1 (1 samples)
Hops average = 9.33333 (1 samples)
====== Traffic class 111 ======
Packet latency average = 44.5 (1 samples)
	minimum = 32 (1 samples)
	maximum = 57 (1 samples)
Network latency average = 44.5 (1 samples)
	minimum = 32 (1 samples)
	maximum = 57 (1 samples)
Flit latency average = 44.5 (1 samples)
	minimum = 32 (1 samples)
	maximum = 57 (1 samples)
Fragmentation average = 0 (1 samples)
	minimum = 0 (1 samples)
	maximum = 0 (1 samples)
Injected packet rate average = 3.32226e-06 (1 samples)
	minimum = 0 (1 samples)
	maximum = 0.000142857 (1 samples)
Accepted packet rate average = 3.32226e-06 (1 samples)
	minimum = 0 (1 samples)
	maximum = 0.000571429 (1 samples)
Injected flit rate average = 3.32226e-06 (1 samples)
	minimum = 0 (1 samples)
	maximum = 0.000142857 (1 samples)
Accepted flit rate average = 3.32226e-06 (1 samples)
	minimum = 0 (1 samples)
	maximum = 0.000571429 (1 samples)
Injected packet size average = 1 (1 samples)
Accepted packet size average = 1 (1 samples)
Hops average = 8.5 (1 samples)
====== Traffic class 112 ======
Packet latency average = 17 (1 samples)
	minimum = 17 (1 samples)
	maximum = 17 (1 samples)
Network latency average = 17 (1 samples)
	minimum = 17 (1 samples)
	maximum = 17 (1 samples)
Flit latency average = 17 (1 samples)
	minimum = 17 (1 samples)
	maximum = 17 (1 samples)
Fragmentation average = 0 (1 samples)
	minimum = 0 (1 samples)
	maximum = 0 (1 samples)
Injected packet rate average = 8.30565e-07 (1 samples)
	minimum = 0 (1 samples)
	maximum = 0.000142857 (1 samples)
Accepted packet rate average = 8.30565e-07 (1 samples)
	minimum = 0 (1 samples)
	maximum = 0.000142857 (1 samples)
Injected flit rate average = 8.30565e-07 (1 samples)
	minimum = 0 (1 samples)
	maximum = 0.000142857 (1 samples)
Accepted flit rate average = 8.30565e-07 (1 samples)
	minimum = 0 (1 samples)
	maximum = 0.000142857 (1 samples)
Injected packet size average = 1 (1 samples)
Accepted packet size average = 1 (1 samples)
Hops average = 3 (1 samples)
====== Traffic class 113 ======
Packet latency average = 41 (1 samples)
	minimum = 7 (1 samples)
	maximum = 62 (1 samples)
Network latency average = 41 (1 samples)
	minimum = 7 (1 samples)
	maximum = 62 (1 samples)
Flit latency average = 41 (1 samples)
	minimum = 7 (1 samples)
	maximum = 62 (1 samples)
Fragmentation average = 0 (1 samples)
	minimum = 0 (1 samples)
	maximum = 0 (1 samples)
Injected packet rate average = 4.15282e-06 (1 samples)
	minimum = 0 (1 samples)
	maximum = 0.000142857 (1 samples)
Accepted packet rate average = 4.15282e-06 (1 samples)
	minimum = 0 (1 samples)
	maximum = 0.000714286 (1 samples)
Injected flit rate average = 4.15282e-06 (1 samples)
	minimum = 0 (1 samples)
	maximum = 0.000142857 (1 samples)
Accepted flit rate average = 4.15282e-06 (1 samples)
	minimum = 0 (1 samples)
	maximum = 0.000714286 (1 samples)
Injected packet size average = 1 (1 samples)
Accepted packet size average = 1 (1 samples)
Hops average = 7.8 (1 samples)
====== Traffic class 114 ======
Packet latency average = 34.5 (1 samples)
	minimum = 32 (1 samples)
	maximum = 37 (1 samples)
Network latency average = 34.5 (1 samples)
	minimum = 32 (1 samples)
	maximum = 37 (1 samples)
Flit latency average = 34.5 (1 samples)
	minimum = 32 (1 samples)
	maximum = 37 (1 samples)
Fragmentation average = 0 (1 samples)
	minimum = 0 (1 samples)
	maximum = 0 (1 samples)
Injected packet rate average = 1.66113e-06 (1 samples)
	minimum = 0 (1 samples)
	maximum = 0.000142857 (1 samples)
Accepted packet rate average = 1.66113e-06 (1 samples)
	minimum = 0 (1 samples)
	maximum = 0.000285714 (1 samples)
Injected flit rate average = 1.66113e-06 (1 samples)
	minimum = 0 (1 samples)
	maximum = 0.000142857 (1 samples)
Accepted flit rate average = 1.66113e-06 (1 samples)
	minimum = 0 (1 samples)
	maximum = 0.000285714 (1 samples)
Injected packet size average = 1 (1 samples)
Accepted packet size average = 1 (1 samples)
Hops average = 6.5 (1 samples)
====== Traffic class 115 ======
Packet latency average = 54 (1 samples)
	minimum = 54 (1 samples)
	maximum = 54 (1 samples)
Network latency average = 54 (1 samples)
	minimum = 54 (1 samples)
	maximum = 54 (1 samples)
Flit latency average = 54 (1 samples)
	minimum = 54 (1 samples)
	maximum = 54 (1 samples)
Fragmentation average = 0 (1 samples)
	minimum = 0 (1 samples)
	maximum = 0 (1 samples)
Injected packet rate average = 8.30565e-07 (1 samples)
	minimum = 0 (1 samples)
	maximum = 0.000142857 (1 samples)
Accepted packet rate average = 8.30565e-07 (1 samples)
	minimum = 0 (1 samples)
	maximum = 0.000142857 (1 samples)
Injected flit rate average = 8.30565e-07 (1 samples)
	minimum = 0 (1 samples)
	maximum = 0.000142857 (1 samples)
Accepted flit rate average = 8.30565e-07 (1 samples)
	minimum = 0 (1 samples)
	maximum = 0.000142857 (1 samples)
Injected packet size average = 1 (1 samples)
Accepted packet size average = 1 (1 samples)
Hops average = 10 (1 samples)
====== Traffic class 116 ======
Packet latency average = 28 (1 samples)
	minimum = 28 (1 samples)
	maximum = 28 (1 samples)
Network latency average = 28 (1 samples)
	minimum = 28 (1 samples)
	maximum = 28 (1 samples)
Flit latency average = 27 (1 samples)
	minimum = 27 (1 samples)
	maximum = 27 (1 samples)
Fragmentation average = 0 (1 samples)
	minimum = 0 (1 samples)
	maximum = 0 (1 samples)
Injected packet rate average = 8.30565e-07 (1 samples)
	minimum = 0 (1 samples)
	maximum = 0.000142857 (1 samples)
Accepted packet rate average = 8.30565e-07 (1 samples)
	minimum = 0 (1 samples)
	maximum = 0.000142857 (1 samples)
Injected flit rate average = 1.66113e-06 (1 samples)
	minimum = 0 (1 samples)
	maximum = 0.000285714 (1 samples)
Accepted flit rate average = 1.66113e-06 (1 samples)
	minimum = 0 (1 samples)
	maximum = 0.000285714 (1 samples)
Injected packet size average = 2 (1 samples)
Accepted packet size average = 2 (1 samples)
Hops average = 5 (1 samples)
====== Traffic class 117 ======
Packet latency average = nan (1 samples)
	minimum = nan (1 samples)
	maximum = nan (1 samples)
Network latency average = nan (1 samples)
	minimum = nan (1 samples)
	maximum = nan (1 samples)
Flit latency average = nan (1 samples)
	minimum = nan (1 samples)
	maximum = nan (1 samples)
Fragmentation average = nan (1 samples)
	minimum = nan (1 samples)
	maximum = nan (1 samples)
Injected packet rate average = 0 (1 samples)
	minimum = 0 (1 samples)
	maximum = 0 (1 samples)
Accepted packet rate average = 0 (1 samples)
	minimum = 0 (1 samples)
	maximum = 0 (1 samples)
Injected flit rate average = 0 (1 samples)
	minimum = 0 (1 samples)
	maximum = 0 (1 samples)
Accepted flit rate average = 0 (1 samples)
	minimum = 0 (1 samples)
	maximum = 0 (1 samples)
Injected packet size average = nan (1 samples)
Accepted packet size average = nan (1 samples)
Hops average = nan (1 samples)
====== Traffic class 118 ======
Packet latency average = 27 (1 samples)
	minimum = 27 (1 samples)
	maximum = 27 (1 samples)
Network latency average = 27 (1 samples)
	minimum = 27 (1 samples)
	maximum = 27 (1 samples)
Flit latency average = 27 (1 samples)
	minimum = 27 (1 samples)
	maximum = 27 (1 samples)
Fragmentation average = 0 (1 samples)
	minimum = 0 (1 samples)
	maximum = 0 (1 samples)
Injected packet rate average = 8.30565e-07 (1 samples)
	minimum = 0 (1 samples)
	maximum = 0.000142857 (1 samples)
Accepted packet rate average = 8.30565e-07 (1 samples)
	minimum = 0 (1 samples)
	maximum = 0.000142857 (1 samples)
Injected flit rate average = 8.30565e-07 (1 samples)
	minimum = 0 (1 samples)
	maximum = 0.000142857 (1 samples)
Accepted flit rate average = 8.30565e-07 (1 samples)
	minimum = 0 (1 samples)
	maximum = 0.000142857 (1 samples)
Injected packet size average = 1 (1 samples)
Accepted packet size average = 1 (1 samples)
Hops average = 5 (1 samples)
====== Traffic class 119 ======
Packet latency average = 43.8 (1 samples)
	minimum = 28 (1 samples)
	maximum = 63 (1 samples)
Network latency average = 43.8 (1 samples)
	minimum = 28 (1 samples)
	maximum = 63 (1 samples)
Flit latency average = 43.8 (1 samples)
	minimum = 28 (1 samples)
	maximum = 63 (1 samples)
Fragmentation average = 0 (1 samples)
	minimum = 0 (1 samples)
	maximum = 0 (1 samples)
Injected packet rate average = 4.15282e-06 (1 samples)
	minimum = 0 (1 samples)
	maximum = 0.000142857 (1 samples)
Accepted packet rate average = 4.15282e-06 (1 samples)
	minimum = 0 (1 samples)
	maximum = 0.000714286 (1 samples)
Injected flit rate average = 4.15282e-06 (1 samples)
	minimum = 0 (1 samples)
	maximum = 0.000142857 (1 samples)
Accepted flit rate average = 4.15282e-06 (1 samples)
	minimum = 0 (1 samples)
	maximum = 0.000714286 (1 samples)
Injected packet size average = 1 (1 samples)
Accepted packet size average = 1 (1 samples)
Hops average = 8.2 (1 samples)
====== Traffic class 120 ======
Packet latency average = 30.3333 (1 samples)
	minimum = 7 (1 samples)
	maximum = 47 (1 samples)
Network latency average = 30.3333 (1 samples)
	minimum = 7 (1 samples)
	maximum = 47 (1 samples)
Flit latency average = 30.3333 (1 samples)
	minimum = 7 (1 samples)
	maximum = 47 (1 samples)
Fragmentation average = 0 (1 samples)
	minimum = 0 (1 samples)
	maximum = 0 (1 samples)
Injected packet rate average = 2.49169e-06 (1 samples)
	minimum = 0 (1 samples)
	maximum = 0.000142857 (1 samples)
Accepted packet rate average = 2.49169e-06 (1 samples)
	minimum = 0 (1 samples)
	maximum = 0.000428571 (1 samples)
Injected flit rate average = 2.49169e-06 (1 samples)
	minimum = 0 (1 samples)
	maximum = 0.000142857 (1 samples)
Accepted flit rate average = 2.49169e-06 (1 samples)
	minimum = 0 (1 samples)
	maximum = 0.000428571 (1 samples)
Injected packet size average = 1 (1 samples)
Accepted packet size average = 1 (1 samples)
Hops average = 5.66667 (1 samples)
====== Traffic class 121 ======
Packet latency average = 42 (1 samples)
	minimum = 42 (1 samples)
	maximum = 42 (1 samples)
Network latency average = 42 (1 samples)
	minimum = 42 (1 samples)
	maximum = 42 (1 samples)
Flit latency average = 42 (1 samples)
	minimum = 42 (1 samples)
	maximum = 42 (1 samples)
Fragmentation average = 0 (1 samples)
	minimum = 0 (1 samples)
	maximum = 0 (1 samples)
Injected packet rate average = 8.30565e-07 (1 samples)
	minimum = 0 (1 samples)
	maximum = 0.000142857 (1 samples)
Accepted packet rate average = 8.30565e-07 (1 samples)
	minimum = 0 (1 samples)
	maximum = 0.000142857 (1 samples)
Injected flit rate average = 8.30565e-07 (1 samples)
	minimum = 0 (1 samples)
	maximum = 0.000142857 (1 samples)
Accepted flit rate average = 8.30565e-07 (1 samples)
	minimum = 0 (1 samples)
	maximum = 0.000142857 (1 samples)
Injected packet size average = 1 (1 samples)
Accepted packet size average = 1 (1 samples)
Hops average = 8 (1 samples)
====== Traffic class 122 ======
Packet latency average = 32 (1 samples)
	minimum = 17 (1 samples)
	maximum = 42 (1 samples)
Network latency average = 32 (1 samples)
	minimum = 17 (1 samples)
	maximum = 42 (1 samples)
Flit latency average = 32 (1 samples)
	minimum = 17 (1 samples)
	maximum = 42 (1 samples)
Fragmentation average = 0 (1 samples)
	minimum = 0 (1 samples)
	maximum = 0 (1 samples)
Injected packet rate average = 3.32226e-06 (1 samples)
	minimum = 0 (1 samples)
	maximum = 0.000142857 (1 samples)
Accepted packet rate average = 3.32226e-06 (1 samples)
	minimum = 0 (1 samples)
	maximum = 0.000571429 (1 samples)
Injected flit rate average = 3.32226e-06 (1 samples)
	minimum = 0 (1 samples)
	maximum = 0.000142857 (1 samples)
Accepted flit rate average = 3.32226e-06 (1 samples)
	minimum = 0 (1 samples)
	maximum = 0.000571429 (1 samples)
Injected packet size average = 1 (1 samples)
Accepted packet size average = 1 (1 samples)
Hops average = 6 (1 samples)
====== Traffic class 123 ======
Packet latency average = 22 (1 samples)
	minimum = 7 (1 samples)
	maximum = 32 (1 samples)
Network latency average = 22 (1 samples)
	minimum = 7 (1 samples)
	maximum = 32 (1 samples)
Flit latency average = 22 (1 samples)
	minimum = 7 (1 samples)
	maximum = 32 (1 samples)
Fragmentation average = 0 (1 samples)
	minimum = 0 (1 samples)
	maximum = 0 (1 samples)
Injected packet rate average = 3.32226e-06 (1 samples)
	minimum = 0 (1 samples)
	maximum = 0.000142857 (1 samples)
Accepted packet rate average = 3.32226e-06 (1 samples)
	minimum = 0 (1 samples)
	maximum = 0.000571429 (1 samples)
Injected flit rate average = 3.32226e-06 (1 samples)
	minimum = 0 (1 samples)
	maximum = 0.000142857 (1 samples)
Accepted flit rate average = 3.32226e-06 (1 samples)
	minimum = 0 (1 samples)
	maximum = 0.000571429 (1 samples)
Injected packet size average = 1 (1 samples)
Accepted packet size average = 1 (1 samples)
Hops average = 4 (1 samples)
====== Traffic class 124 ======
Packet latency average = 28 (1 samples)
	minimum = 28 (1 samples)
	maximum = 28 (1 samples)
Network latency average = 28 (1 samples)
	minimum = 28 (1 samples)
	maximum = 28 (1 samples)
Flit latency average = 28 (1 samples)
	minimum = 28 (1 samples)
	maximum = 28 (1 samples)
Fragmentation average = 0 (1 samples)
	minimum = 0 (1 samples)
	maximum = 0 (1 samples)
Injected packet rate average = 8.30565e-07 (1 samples)
	minimum = 0 (1 samples)
	maximum = 0.000142857 (1 samples)
Accepted packet rate average = 8.30565e-07 (1 samples)
	minimum = 0 (1 samples)
	maximum = 0.000142857 (1 samples)
Injected flit rate average = 8.30565e-07 (1 samples)
	minimum = 0 (1 samples)
	maximum = 0.000142857 (1 samples)
Accepted flit rate average = 8.30565e-07 (1 samples)
	minimum = 0 (1 samples)
	maximum = 0.000142857 (1 samples)
Injected packet size average = 1 (1 samples)
Accepted packet size average = 1 (1 samples)
Hops average = 5 (1 samples)
====== Traffic class 125 ======
Packet latency average = nan (1 samples)
	minimum = nan (1 samples)
	maximum = nan (1 samples)
Network latency average = nan (1 samples)
	minimum = nan (1 samples)
	maximum = nan (1 samples)
Flit latency average = nan (1 samples)
	minimum = nan (1 samples)
	maximum = nan (1 samples)
Fragmentation average = nan (1 samples)
	minimum = nan (1 samples)
	maximum = nan (1 samples)
Injected packet rate average = 0 (1 samples)
	minimum = 0 (1 samples)
	maximum = 0 (1 samples)
Accepted packet rate average = 0 (1 samples)
	minimum = 0 (1 samples)
	maximum = 0 (1 samples)
Injected flit rate average = 0 (1 samples)
	minimum = 0 (1 samples)
	maximum = 0 (1 samples)
Accepted flit rate average = 0 (1 samples)
	minimum = 0 (1 samples)
	maximum = 0 (1 samples)
Injected packet size average = nan (1 samples)
Accepted packet size average = nan (1 samples)
Hops average = nan (1 samples)
====== Traffic class 126 ======
Packet latency average = nan (1 samples)
	minimum = nan (1 samples)
	maximum = nan (1 samples)
Network latency average = nan (1 samples)
	minimum = nan (1 samples)
	maximum = nan (1 samples)
Flit latency average = nan (1 samples)
	minimum = nan (1 samples)
	maximum = nan (1 samples)
Fragmentation average = nan (1 samples)
	minimum = nan (1 samples)
	maximum = nan (1 samples)
Injected packet rate average = 0 (1 samples)
	minimum = 0 (1 samples)
	maximum = 0 (1 samples)
Accepted packet rate average = 0 (1 samples)
	minimum = 0 (1 samples)
	maximum = 0 (1 samples)
Injected flit rate average = 0 (1 samples)
	minimum = 0 (1 samples)
	maximum = 0 (1 samples)
Accepted flit rate average = 0 (1 samples)
	minimum = 0 (1 samples)
	maximum = 0 (1 samples)
Injected packet size average = nan (1 samples)
Accepted packet size average = nan (1 samples)
Hops average = nan (1 samples)
====== Traffic class 127 ======
Packet latency average = nan (1 samples)
	minimum = nan (1 samples)
	maximum = nan (1 samples)
Network latency average = nan (1 samples)
	minimum = nan (1 samples)
	maximum = nan (1 samples)
Flit latency average = nan (1 samples)
	minimum = nan (1 samples)
	maximum = nan (1 samples)
Fragmentation average = nan (1 samples)
	minimum = nan (1 samples)
	maximum = nan (1 samples)
Injected packet rate average = 0 (1 samples)
	minimum = 0 (1 samples)
	maximum = 0 (1 samples)
Accepted packet rate average = 0 (1 samples)
	minimum = 0 (1 samples)
	maximum = 0 (1 samples)
Injected flit rate average = 0 (1 samples)
	minimum = 0 (1 samples)
	maximum = 0 (1 samples)
Accepted flit rate average = 0 (1 samples)
	minimum = 0 (1 samples)
	maximum = 0 (1 samples)
Injected packet size average = nan (1 samples)
Accepted packet size average = nan (1 samples)
Hops average = nan (1 samples)
====== Traffic class 128 ======
Packet latency average = nan (1 samples)
	minimum = nan (1 samples)
	maximum = nan (1 samples)
Network latency average = nan (1 samples)
	minimum = nan (1 samples)
	maximum = nan (1 samples)
Flit latency average = nan (1 samples)
	minimum = nan (1 samples)
	maximum = nan (1 samples)
Fragmentation average = nan (1 samples)
	minimum = nan (1 samples)
	maximum = nan (1 samples)
Injected packet rate average = 0 (1 samples)
	minimum = 0 (1 samples)
	maximum = 0 (1 samples)
Accepted packet rate average = 0 (1 samples)
	minimum = 0 (1 samples)
	maximum = 0 (1 samples)
Injected flit rate average = 0 (1 samples)
	minimum = 0 (1 samples)
	maximum = 0 (1 samples)
Accepted flit rate average = 0 (1 samples)
	minimum = 0 (1 samples)
	maximum = 0 (1 samples)
Injected packet size average = nan (1 samples)
Accepted packet size average = nan (1 samples)
Hops average = nan (1 samples)
Total run time 5.61351
