BEGIN Configuration File: mesh6x7_chi
// CHI-style traffic on a 6x7 mesh -- 4 INDEPENDENT PHYSICAL CHANNELS (subnets=4).
// Auto-generated by gen_chi_mesh.py.
// 42 routers x 4 terminals = 168 nodes
//   router r -> nodes {4r .. 4r+3}: first 2 = RN (cores), last 2 = HN (home/dir)
//
// CHI channel -> message type -> subnet (each subnet is a separate physical net):
//   REQ=read_request->subnet0  DAT=read_reply->subnet1
//   SNP=write_request->subnet2 RSP=write_reply->subnet3

topology     = anynet;
network_file = mesh6x7_chi_anynet;
routing_function = min;

// --- two classes carry the two req/reply pairs without type collision ---
classes = 2;
use_read_write = {1,1};
write_fraction = {0,1};   // class0 -> REQ/DAT only ; class1 -> SNP/RSP only

// snoop amplification factor = class1_rate / class0_rate = 1.0
// (tune by editing the second value, or regenerate with a different SNOOP_FACTOR)
injection_rate = {0.01,0.01};

// destinations: REQ -> uniform over all HNs ; SNP -> uniform over all RNs
traffic = {hotspot({{2,3,6,7,10,11,14,15,18,19,22,23,26,27,30,31,34,35,38,39,42,43,46,47,50,51,54,55,58,59,62,63,66,67,70,71,74,75,78,79,82,83,86,87,90,91,94,95,98,99,102,103,106,107,110,111,114,115,118,119,122,123,126,127,130,131,134,135,138,139,142,143,146,147,150,151,154,155,158,159,162,163,166,167}}),hotspot({{0,1,4,5,8,9,12,13,16,17,20,21,24,25,28,29,32,33,36,37,40,41,44,45,48,49,52,53,56,57,60,61,64,65,68,69,72,73,76,77,80,81,84,85,88,89,92,93,96,97,100,101,104,105,108,109,112,113,116,117,120,121,124,125,128,129,132,133,136,137,140,141,144,145,148,149,152,153,156,157,160,161,164,165}})};

// packet sizes (16B/flit, 64B cache line = 5 flit)
read_request_size  = {1,1};   // REQ = 1 flit (control)
read_reply_size    = {5,1};   // DAT = 5 flit (cache line)
write_request_size = {1,1};   // SNP = 1 flit (control)
write_reply_size   = {1,1};   // RSP = 1 flit (control)

// --- 4 independent physical channels: one message type per subnet ---
subnets = 4;
read_request_subnet  = 0;   // REQ
read_reply_subnet    = 1;   // DAT
write_request_subnet = 2;   // SNP
write_reply_subnet   = 3;   // RSP

// each subnet carries a single channel, so each type spans the full VC range
read_request_begin_vc  = 0;  read_request_end_vc  = 1;
read_reply_begin_vc    = 0;  read_reply_end_vc    = 1;
write_request_begin_vc = 0;  write_request_end_vc = 1;
write_reply_begin_vc   = 0;  write_reply_end_vc   = 1;

num_vcs     = 2;
vc_buf_size = 8;
vc_allocator = islip;
sw_allocator = islip;
alloc_iters  = 1;

sim_type       = latency;
packet_size    = 1;          // overridden by *_size in read_write mode
sample_period  = 1000;
warmup_periods = 3;
sim_count      = 1;

END Configuration File: mesh6x7_chi
========================Network File Parsed=================
******************node listing**********************
Node 0	Router 0
Node 1	Router 0
Node 2	Router 0
Node 3	Router 0
Node 4	Router 1
Node 5	Router 1
Node 6	Router 1
Node 7	Router 1
Node 8	Router 2
Node 9	Router 2
Node 10	Router 2
Node 11	Router 2
Node 12	Router 3
Node 13	Router 3
Node 14	Router 3
Node 15	Router 3
Node 16	Router 4
Node 17	Router 4
Node 18	Router 4
Node 19	Router 4
Node 20	Router 5
Node 21	Router 5
Node 22	Router 5
Node 23	Router 5
Node 24	Router 6
Node 25	Router 6
Node 26	Router 6
Node 27	Router 6
Node 28	Router 7
Node 29	Router 7
Node 30	Router 7
Node 31	Router 7
Node 32	Router 8
Node 33	Router 8
Node 34	Router 8
Node 35	Router 8
Node 36	Router 9
Node 37	Router 9
Node 38	Router 9
Node 39	Router 9
Node 40	Router 10
Node 41	Router 10
Node 42	Router 10
Node 43	Router 10
Node 44	Router 11
Node 45	Router 11
Node 46	Router 11
Node 47	Router 11
Node 48	Router 12
Node 49	Router 12
Node 50	Router 12
Node 51	Router 12
Node 52	Router 13
Node 53	Router 13
Node 54	Router 13
Node 55	Router 13
Node 56	Router 14
Node 57	Router 14
Node 58	Router 14
Node 59	Router 14
Node 60	Router 15
Node 61	Router 15
Node 62	Router 15
Node 63	Router 15
Node 64	Router 16
Node 65	Router 16
Node 66	Router 16
Node 67	Router 16
Node 68	Router 17
Node 69	Router 17
Node 70	Router 17
Node 71	Router 17
Node 72	Router 18
Node 73	Router 18
Node 74	Router 18
Node 75	Router 18
Node 76	Router 19
Node 77	Router 19
Node 78	Router 19
Node 79	Router 19
Node 80	Router 20
Node 81	Router 20
Node 82	Router 20
Node 83	Router 20
Node 84	Router 21
Node 85	Router 21
Node 86	Router 21
Node 87	Router 21
Node 88	Router 22
Node 89	Router 22
Node 90	Router 22
Node 91	Router 22
Node 92	Router 23
Node 93	Router 23
Node 94	Router 23
Node 95	Router 23
Node 96	Router 24
Node 97	Router 24
Node 98	Router 24
Node 99	Router 24
Node 100	Router 25
Node 101	Router 25
Node 102	Router 25
Node 103	Router 25
Node 104	Router 26
Node 105	Router 26
Node 106	Router 26
Node 107	Router 26
Node 108	Router 27
Node 109	Router 27
Node 110	Router 27
Node 111	Router 27
Node 112	Router 28
Node 113	Router 28
Node 114	Router 28
Node 115	Router 28
Node 116	Router 29
Node 117	Router 29
Node 118	Router 29
Node 119	Router 29
Node 120	Router 30
Node 121	Router 30
Node 122	Router 30
Node 123	Router 30
Node 124	Router 31
Node 125	Router 31
Node 126	Router 31
Node 127	Router 31
Node 128	Router 32
Node 129	Router 32
Node 130	Router 32
Node 131	Router 32
Node 132	Router 33
Node 133	Router 33
Node 134	Router 33
Node 135	Router 33
Node 136	Router 34
Node 137	Router 34
Node 138	Router 34
Node 139	Router 34
Node 140	Router 35
Node 141	Router 35
Node 142	Router 35
Node 143	Router 35
Node 144	Router 36
Node 145	Router 36
Node 146	Router 36
Node 147	Router 36
Node 148	Router 37
Node 149	Router 37
Node 150	Router 37
Node 151	Router 37
Node 152	Router 38
Node 153	Router 38
Node 154	Router 38
Node 155	Router 38
Node 156	Router 39
Node 157	Router 39
Node 158	Router 39
Node 159	Router 39
Node 160	Router 40
Node 161	Router 40
Node 162	Router 40
Node 163	Router 40
Node 164	Router 41
Node 165	Router 41
Node 166	Router 41
Node 167	Router 41

****************router to node listing*************
Router 0
	 Node 0 lat 1
	 Node 1 lat 1
	 Node 2 lat 1
	 Node 3 lat 1
Router 1
	 Node 4 lat 1
	 Node 5 lat 1
	 Node 6 lat 1
	 Node 7 lat 1
Router 2
	 Node 8 lat 1
	 Node 9 lat 1
	 Node 10 lat 1
	 Node 11 lat 1
Router 3
	 Node 12 lat 1
	 Node 13 lat 1
	 Node 14 lat 1
	 Node 15 lat 1
Router 4
	 Node 16 lat 1
	 Node 17 lat 1
	 Node 18 lat 1
	 Node 19 lat 1
Router 5
	 Node 20 lat 1
	 Node 21 lat 1
	 Node 22 lat 1
	 Node 23 lat 1
Router 6
	 Node 24 lat 1
	 Node 25 lat 1
	 Node 26 lat 1
	 Node 27 lat 1
Router 7
	 Node 28 lat 1
	 Node 29 lat 1
	 Node 30 lat 1
	 Node 31 lat 1
Router 8
	 Node 32 lat 1
	 Node 33 lat 1
	 Node 34 lat 1
	 Node 35 lat 1
Router 9
	 Node 36 lat 1
	 Node 37 lat 1
	 Node 38 lat 1
	 Node 39 lat 1
Router 10
	 Node 40 lat 1
	 Node 41 lat 1
	 Node 42 lat 1
	 Node 43 lat 1
Router 11
	 Node 44 lat 1
	 Node 45 lat 1
	 Node 46 lat 1
	 Node 47 lat 1
Router 12
	 Node 48 lat 1
	 Node 49 lat 1
	 Node 50 lat 1
	 Node 51 lat 1
Router 13
	 Node 52 lat 1
	 Node 53 lat 1
	 Node 54 lat 1
	 Node 55 lat 1
Router 14
	 Node 56 lat 1
	 Node 57 lat 1
	 Node 58 lat 1
	 Node 59 lat 1
Router 15
	 Node 60 lat 1
	 Node 61 lat 1
	 Node 62 lat 1
	 Node 63 lat 1
Router 16
	 Node 64 lat 1
	 Node 65 lat 1
	 Node 66 lat 1
	 Node 67 lat 1
Router 17
	 Node 68 lat 1
	 Node 69 lat 1
	 Node 70 lat 1
	 Node 71 lat 1
Router 18
	 Node 72 lat 1
	 Node 73 lat 1
	 Node 74 lat 1
	 Node 75 lat 1
Router 19
	 Node 76 lat 1
	 Node 77 lat 1
	 Node 78 lat 1
	 Node 79 lat 1
Router 20
	 Node 80 lat 1
	 Node 81 lat 1
	 Node 82 lat 1
	 Node 83 lat 1
Router 21
	 Node 84 lat 1
	 Node 85 lat 1
	 Node 86 lat 1
	 Node 87 lat 1
Router 22
	 Node 88 lat 1
	 Node 89 lat 1
	 Node 90 lat 1
	 Node 91 lat 1
Router 23
	 Node 92 lat 1
	 Node 93 lat 1
	 Node 94 lat 1
	 Node 95 lat 1
Router 24
	 Node 96 lat 1
	 Node 97 lat 1
	 Node 98 lat 1
	 Node 99 lat 1
Router 25
	 Node 100 lat 1
	 Node 101 lat 1
	 Node 102 lat 1
	 Node 103 lat 1
Router 26
	 Node 104 lat 1
	 Node 105 lat 1
	 Node 106 lat 1
	 Node 107 lat 1
Router 27
	 Node 108 lat 1
	 Node 109 lat 1
	 Node 110 lat 1
	 Node 111 lat 1
Router 28
	 Node 112 lat 1
	 Node 113 lat 1
	 Node 114 lat 1
	 Node 115 lat 1
Router 29
	 Node 116 lat 1
	 Node 117 lat 1
	 Node 118 lat 1
	 Node 119 lat 1
Router 30
	 Node 120 lat 1
	 Node 121 lat 1
	 Node 122 lat 1
	 Node 123 lat 1
Router 31
	 Node 124 lat 1
	 Node 125 lat 1
	 Node 126 lat 1
	 Node 127 lat 1
Router 32
	 Node 128 lat 1
	 Node 129 lat 1
	 Node 130 lat 1
	 Node 131 lat 1
Router 33
	 Node 132 lat 1
	 Node 133 lat 1
	 Node 134 lat 1
	 Node 135 lat 1
Router 34
	 Node 136 lat 1
	 Node 137 lat 1
	 Node 138 lat 1
	 Node 139 lat 1
Router 35
	 Node 140 lat 1
	 Node 141 lat 1
	 Node 142 lat 1
	 Node 143 lat 1
Router 36
	 Node 144 lat 1
	 Node 145 lat 1
	 Node 146 lat 1
	 Node 147 lat 1
Router 37
	 Node 148 lat 1
	 Node 149 lat 1
	 Node 150 lat 1
	 Node 151 lat 1
Router 38
	 Node 152 lat 1
	 Node 153 lat 1
	 Node 154 lat 1
	 Node 155 lat 1
Router 39
	 Node 156 lat 1
	 Node 157 lat 1
	 Node 158 lat 1
	 Node 159 lat 1
Router 40
	 Node 160 lat 1
	 Node 161 lat 1
	 Node 162 lat 1
	 Node 163 lat 1
Router 41
	 Node 164 lat 1
	 Node 165 lat 1
	 Node 166 lat 1
	 Node 167 lat 1

*****************router to router listing************
Router 0
	 Router 1 lat 1
	 Router 7 lat 1
Router 1
	 Router 0 lat 1
	 Router 2 lat 1
	 Router 8 lat 1
Router 2
	 Router 1 lat 1
	 Router 3 lat 1
	 Router 9 lat 1
Router 3
	 Router 2 lat 1
	 Router 4 lat 1
	 Router 10 lat 1
Router 4
	 Router 3 lat 1
	 Router 5 lat 1
	 Router 11 lat 1
Router 5
	 Router 4 lat 1
	 Router 6 lat 1
	 Router 12 lat 1
Router 6
	 Router 5 lat 1
	 Router 13 lat 1
Router 7
	 Router 0 lat 1
	 Router 8 lat 1
	 Router 14 lat 1
Router 8
	 Router 1 lat 1
	 Router 7 lat 1
	 Router 9 lat 1
	 Router 15 lat 1
Router 9
	 Router 2 lat 1
	 Router 8 lat 1
	 Router 10 lat 1
	 Router 16 lat 1
Router 10
	 Router 3 lat 1
	 Router 9 lat 1
	 Router 11 lat 1
	 Router 17 lat 1
Router 11
	 Router 4 lat 1
	 Router 10 lat 1
	 Router 12 lat 1
	 Router 18 lat 1
Router 12
	 Router 5 lat 1
	 Router 11 lat 1
	 Router 13 lat 1
	 Router 19 lat 1
Router 13
	 Router 6 lat 1
	 Router 12 lat 1
	 Router 20 lat 1
Router 14
	 Router 7 lat 1
	 Router 15 lat 1
	 Router 21 lat 1
Router 15
	 Router 8 lat 1
	 Router 14 lat 1
	 Router 16 lat 1
	 Router 22 lat 1
Router 16
	 Router 9 lat 1
	 Router 15 lat 1
	 Router 17 lat 1
	 Router 23 lat 1
Router 17
	 Router 10 lat 1
	 Router 16 lat 1
	 Router 18 lat 1
	 Router 24 lat 1
Router 18
	 Router 11 lat 1
	 Router 17 lat 1
	 Router 19 lat 1
	 Router 25 lat 1
Router 19
	 Router 12 lat 1
	 Router 18 lat 1
	 Router 20 lat 1
	 Router 26 lat 1
Router 20
	 Router 13 lat 1
	 Router 19 lat 1
	 Router 27 lat 1
Router 21
	 Router 14 lat 1
	 Router 22 lat 1
	 Router 28 lat 1
Router 22
	 Router 15 lat 1
	 Router 21 lat 1
	 Router 23 lat 1
	 Router 29 lat 1
Router 23
	 Router 16 lat 1
	 Router 22 lat 1
	 Router 24 lat 1
	 Router 30 lat 1
Router 24
	 Router 17 lat 1
	 Router 23 lat 1
	 Router 25 lat 1
	 Router 31 lat 1
Router 25
	 Router 18 lat 1
	 Router 24 lat 1
	 Router 26 lat 1
	 Router 32 lat 1
Router 26
	 Router 19 lat 1
	 Router 25 lat 1
	 Router 27 lat 1
	 Router 33 lat 1
Router 27
	 Router 20 lat 1
	 Router 26 lat 1
	 Router 34 lat 1
Router 28
	 Router 21 lat 1
	 Router 29 lat 1
	 Router 35 lat 1
Router 29
	 Router 22 lat 1
	 Router 28 lat 1
	 Router 30 lat 1
	 Router 36 lat 1
Router 30
	 Router 23 lat 1
	 Router 29 lat 1
	 Router 31 lat 1
	 Router 37 lat 1
Router 31
	 Router 24 lat 1
	 Router 30 lat 1
	 Router 32 lat 1
	 Router 38 lat 1
Router 32
	 Router 25 lat 1
	 Router 31 lat 1
	 Router 33 lat 1
	 Router 39 lat 1
Router 33
	 Router 26 lat 1
	 Router 32 lat 1
	 Router 34 lat 1
	 Router 40 lat 1
Router 34
	 Router 27 lat 1
	 Router 33 lat 1
	 Router 41 lat 1
Router 35
	 Router 28 lat 1
	 Router 36 lat 1
Router 36
	 Router 29 lat 1
	 Router 35 lat 1
	 Router 37 lat 1
Router 37
	 Router 30 lat 1
	 Router 36 lat 1
	 Router 38 lat 1
Router 38
	 Router 31 lat 1
	 Router 37 lat 1
	 Router 39 lat 1
Router 39
	 Router 32 lat 1
	 Router 38 lat 1
	 Router 40 lat 1
Router 40
	 Router 33 lat 1
	 Router 39 lat 1
	 Router 41 lat 1
Router 41
	 Router 34 lat 1
	 Router 40 lat 1
==========================Node to Router =====================
router 0 radix 6
	 connected to node 0 at outport 0 lat 1
	 connected to node 1 at outport 1 lat 1
	 connected to node 2 at outport 2 lat 1
	 connected to node 3 at outport 3 lat 1
router 1 radix 7
	 connected to node 4 at outport 0 lat 1
	 connected to node 5 at outport 1 lat 1
	 connected to node 6 at outport 2 lat 1
	 connected to node 7 at outport 3 lat 1
router 2 radix 7
	 connected to node 8 at outport 0 lat 1
	 connected to node 9 at outport 1 lat 1
	 connected to node 10 at outport 2 lat 1
	 connected to node 11 at outport 3 lat 1
router 3 radix 7
	 connected to node 12 at outport 0 lat 1
	 connected to node 13 at outport 1 lat 1
	 connected to node 14 at outport 2 lat 1
	 connected to node 15 at outport 3 lat 1
router 4 radix 7
	 connected to node 16 at outport 0 lat 1
	 connected to node 17 at outport 1 lat 1
	 connected to node 18 at outport 2 lat 1
	 connected to node 19 at outport 3 lat 1
router 5 radix 7
	 connected to node 20 at outport 0 lat 1
	 connected to node 21 at outport 1 lat 1
	 connected to node 22 at outport 2 lat 1
	 connected to node 23 at outport 3 lat 1
router 6 radix 6
	 connected to node 24 at outport 0 lat 1
	 connected to node 25 at outport 1 lat 1
	 connected to node 26 at outport 2 lat 1
	 connected to node 27 at outport 3 lat 1
router 7 radix 7
	 connected to node 28 at outport 0 lat 1
	 connected to node 29 at outport 1 lat 1
	 connected to node 30 at outport 2 lat 1
	 connected to node 31 at outport 3 lat 1
router 8 radix 8
	 connected to node 32 at outport 0 lat 1
	 connected to node 33 at outport 1 lat 1
	 connected to node 34 at outport 2 lat 1
	 connected to node 35 at outport 3 lat 1
router 9 radix 8
	 connected to node 36 at outport 0 lat 1
	 connected to node 37 at outport 1 lat 1
	 connected to node 38 at outport 2 lat 1
	 connected to node 39 at outport 3 lat 1
router 10 radix 8
	 connected to node 40 at outport 0 lat 1
	 connected to node 41 at outport 1 lat 1
	 connected to node 42 at outport 2 lat 1
	 connected to node 43 at outport 3 lat 1
router 11 radix 8
	 connected to node 44 at outport 0 lat 1
	 connected to node 45 at outport 1 lat 1
	 connected to node 46 at outport 2 lat 1
	 connected to node 47 at outport 3 lat 1
router 12 radix 8
	 connected to node 48 at outport 0 lat 1
	 connected to node 49 at outport 1 lat 1
	 connected to node 50 at outport 2 lat 1
	 connected to node 51 at outport 3 lat 1
router 13 radix 7
	 connected to node 52 at outport 0 lat 1
	 connected to node 53 at outport 1 lat 1
	 connected to node 54 at outport 2 lat 1
	 connected to node 55 at outport 3 lat 1
router 14 radix 7
	 connected to node 56 at outport 0 lat 1
	 connected to node 57 at outport 1 lat 1
	 connected to node 58 at outport 2 lat 1
	 connected to node 59 at outport 3 lat 1
router 15 radix 8
	 connected to node 60 at outport 0 lat 1
	 connected to node 61 at outport 1 lat 1
	 connected to node 62 at outport 2 lat 1
	 connected to node 63 at outport 3 lat 1
router 16 radix 8
	 connected to node 64 at outport 0 lat 1
	 connected to node 65 at outport 1 lat 1
	 connected to node 66 at outport 2 lat 1
	 connected to node 67 at outport 3 lat 1
router 17 radix 8
	 connected to node 68 at outport 0 lat 1
	 connected to node 69 at outport 1 lat 1
	 connected to node 70 at outport 2 lat 1
	 connected to node 71 at outport 3 lat 1
router 18 radix 8
	 connected to node 72 at outport 0 lat 1
	 connected to node 73 at outport 1 lat 1
	 connected to node 74 at outport 2 lat 1
	 connected to node 75 at outport 3 lat 1
router 19 radix 8
	 connected to node 76 at outport 0 lat 1
	 connected to node 77 at outport 1 lat 1
	 connected to node 78 at outport 2 lat 1
	 connected to node 79 at outport 3 lat 1
router 20 radix 7
	 connected to node 80 at outport 0 lat 1
	 connected to node 81 at outport 1 lat 1
	 connected to node 82 at outport 2 lat 1
	 connected to node 83 at outport 3 lat 1
router 21 radix 7
	 connected to node 84 at outport 0 lat 1
	 connected to node 85 at outport 1 lat 1
	 connected to node 86 at outport 2 lat 1
	 connected to node 87 at outport 3 lat 1
router 22 radix 8
	 connected to node 88 at outport 0 lat 1
	 connected to node 89 at outport 1 lat 1
	 connected to node 90 at outport 2 lat 1
	 connected to node 91 at outport 3 lat 1
router 23 radix 8
	 connected to node 92 at outport 0 lat 1
	 connected to node 93 at outport 1 lat 1
	 connected to node 94 at outport 2 lat 1
	 connected to node 95 at outport 3 lat 1
router 24 radix 8
	 connected to node 96 at outport 0 lat 1
	 connected to node 97 at outport 1 lat 1
	 connected to node 98 at outport 2 lat 1
	 connected to node 99 at outport 3 lat 1
router 25 radix 8
	 connected to node 100 at outport 0 lat 1
	 connected to node 101 at outport 1 lat 1
	 connected to node 102 at outport 2 lat 1
	 connected to node 103 at outport 3 lat 1
router 26 radix 8
	 connected to node 104 at outport 0 lat 1
	 connected to node 105 at outport 1 lat 1
	 connected to node 106 at outport 2 lat 1
	 connected to node 107 at outport 3 lat 1
router 27 radix 7
	 connected to node 108 at outport 0 lat 1
	 connected to node 109 at outport 1 lat 1
	 connected to node 110 at outport 2 lat 1
	 connected to node 111 at outport 3 lat 1
router 28 radix 7
	 connected to node 112 at outport 0 lat 1
	 connected to node 113 at outport 1 lat 1
	 connected to node 114 at outport 2 lat 1
	 connected to node 115 at outport 3 lat 1
router 29 radix 8
	 connected to node 116 at outport 0 lat 1
	 connected to node 117 at outport 1 lat 1
	 connected to node 118 at outport 2 lat 1
	 connected to node 119 at outport 3 lat 1
router 30 radix 8
	 connected to node 120 at outport 0 lat 1
	 connected to node 121 at outport 1 lat 1
	 connected to node 122 at outport 2 lat 1
	 connected to node 123 at outport 3 lat 1
router 31 radix 8
	 connected to node 124 at outport 0 lat 1
	 connected to node 125 at outport 1 lat 1
	 connected to node 126 at outport 2 lat 1
	 connected to node 127 at outport 3 lat 1
router 32 radix 8
	 connected to node 128 at outport 0 lat 1
	 connected to node 129 at outport 1 lat 1
	 connected to node 130 at outport 2 lat 1
	 connected to node 131 at outport 3 lat 1
router 33 radix 8
	 connected to node 132 at outport 0 lat 1
	 connected to node 133 at outport 1 lat 1
	 connected to node 134 at outport 2 lat 1
	 connected to node 135 at outport 3 lat 1
router 34 radix 7
	 connected to node 136 at outport 0 lat 1
	 connected to node 137 at outport 1 lat 1
	 connected to node 138 at outport 2 lat 1
	 connected to node 139 at outport 3 lat 1
router 35 radix 6
	 connected to node 140 at outport 0 lat 1
	 connected to node 141 at outport 1 lat 1
	 connected to node 142 at outport 2 lat 1
	 connected to node 143 at outport 3 lat 1
router 36 radix 7
	 connected to node 144 at outport 0 lat 1
	 connected to node 145 at outport 1 lat 1
	 connected to node 146 at outport 2 lat 1
	 connected to node 147 at outport 3 lat 1
router 37 radix 7
	 connected to node 148 at outport 0 lat 1
	 connected to node 149 at outport 1 lat 1
	 connected to node 150 at outport 2 lat 1
	 connected to node 151 at outport 3 lat 1
router 38 radix 7
	 connected to node 152 at outport 0 lat 1
	 connected to node 153 at outport 1 lat 1
	 connected to node 154 at outport 2 lat 1
	 connected to node 155 at outport 3 lat 1
router 39 radix 7
	 connected to node 156 at outport 0 lat 1
	 connected to node 157 at outport 1 lat 1
	 connected to node 158 at outport 2 lat 1
	 connected to node 159 at outport 3 lat 1
router 40 radix 7
	 connected to node 160 at outport 0 lat 1
	 connected to node 161 at outport 1 lat 1
	 connected to node 162 at outport 2 lat 1
	 connected to node 163 at outport 3 lat 1
router 41 radix 6
	 connected to node 164 at outport 0 lat 1
	 connected to node 165 at outport 1 lat 1
	 connected to node 166 at outport 2 lat 1
	 connected to node 167 at outport 3 lat 1
==========================Router to Router =====================
router 0
	 connected to router 1 using link 0 at outport 4 lat 1
	 connected to router 7 using link 1 at outport 5 lat 1
router 1
	 connected to router 0 using link 2 at outport 4 lat 1
	 connected to router 2 using link 3 at outport 5 lat 1
	 connected to router 8 using link 4 at outport 6 lat 1
router 2
	 connected to router 1 using link 5 at outport 4 lat 1
	 connected to router 3 using link 6 at outport 5 lat 1
	 connected to router 9 using link 7 at outport 6 lat 1
router 3
	 connected to router 2 using link 8 at outport 4 lat 1
	 connected to router 4 using link 9 at outport 5 lat 1
	 connected to router 10 using link 10 at outport 6 lat 1
router 4
	 connected to router 3 using link 11 at outport 4 lat 1
	 connected to router 5 using link 12 at outport 5 lat 1
	 connected to router 11 using link 13 at outport 6 lat 1
router 5
	 connected to router 4 using link 14 at outport 4 lat 1
	 connected to router 6 using link 15 at outport 5 lat 1
	 connected to router 12 using link 16 at outport 6 lat 1
router 6
	 connected to router 5 using link 17 at outport 4 lat 1
	 connected to router 13 using link 18 at outport 5 lat 1
router 7
	 connected to router 0 using link 19 at outport 4 lat 1
	 connected to router 8 using link 20 at outport 5 lat 1
	 connected to router 14 using link 21 at outport 6 lat 1
router 8
	 connected to router 1 using link 22 at outport 4 lat 1
	 connected to router 7 using link 23 at outport 5 lat 1
	 connected to router 9 using link 24 at outport 6 lat 1
	 connected to router 15 using link 25 at outport 7 lat 1
router 9
	 connected to router 2 using link 26 at outport 4 lat 1
	 connected to router 8 using link 27 at outport 5 lat 1
	 connected to router 10 using link 28 at outport 6 lat 1
	 connected to router 16 using link 29 at outport 7 lat 1
router 10
	 connected to router 3 using link 30 at outport 4 lat 1
	 connected to router 9 using link 31 at outport 5 lat 1
	 connected to router 11 using link 32 at outport 6 lat 1
	 connected to router 17 using link 33 at outport 7 lat 1
router 11
	 connected to router 4 using link 34 at outport 4 lat 1
	 connected to router 10 using link 35 at outport 5 lat 1
	 connected to router 12 using link 36 at outport 6 lat 1
	 connected to router 18 using link 37 at outport 7 lat 1
router 12
	 connected to router 5 using link 38 at outport 4 lat 1
	 connected to router 11 using link 39 at outport 5 lat 1
	 connected to router 13 using link 40 at outport 6 lat 1
	 connected to router 19 using link 41 at outport 7 lat 1
router 13
	 connected to router 6 using link 42 at outport 4 lat 1
	 connected to router 12 using link 43 at outport 5 lat 1
	 connected to router 20 using link 44 at outport 6 lat 1
router 14
	 connected to router 7 using link 45 at outport 4 lat 1
	 connected to router 15 using link 46 at outport 5 lat 1
	 connected to router 21 using link 47 at outport 6 lat 1
router 15
	 connected to router 8 using link 48 at outport 4 lat 1
	 connected to router 14 using link 49 at outport 5 lat 1
	 connected to router 16 using link 50 at outport 6 lat 1
	 connected to router 22 using link 51 at outport 7 lat 1
router 16
	 connected to router 9 using link 52 at outport 4 lat 1
	 connected to router 15 using link 53 at outport 5 lat 1
	 connected to router 17 using link 54 at outport 6 lat 1
	 connected to router 23 using link 55 at outport 7 lat 1
router 17
	 connected to router 10 using link 56 at outport 4 lat 1
	 connected to router 16 using link 57 at outport 5 lat 1
	 connected to router 18 using link 58 at outport 6 lat 1
	 connected to router 24 using link 59 at outport 7 lat 1
router 18
	 connected to router 11 using link 60 at outport 4 lat 1
	 connected to router 17 using link 61 at outport 5 lat 1
	 connected to router 19 using link 62 at outport 6 lat 1
	 connected to router 25 using link 63 at outport 7 lat 1
router 19
	 connected to router 12 using link 64 at outport 4 lat 1
	 connected to router 18 using link 65 at outport 5 lat 1
	 connected to router 20 using link 66 at outport 6 lat 1
	 connected to router 26 using link 67 at outport 7 lat 1
router 20
	 connected to router 13 using link 68 at outport 4 lat 1
	 connected to router 19 using link 69 at outport 5 lat 1
	 connected to router 27 using link 70 at outport 6 lat 1
router 21
	 connected to router 14 using link 71 at outport 4 lat 1
	 connected to router 22 using link 72 at outport 5 lat 1
	 connected to router 28 using link 73 at outport 6 lat 1
router 22
	 connected to router 15 using link 74 at outport 4 lat 1
	 connected to router 21 using link 75 at outport 5 lat 1
	 connected to router 23 using link 76 at outport 6 lat 1
	 connected to router 29 using link 77 at outport 7 lat 1
router 23
	 connected to router 16 using link 78 at outport 4 lat 1
	 connected to router 22 using link 79 at outport 5 lat 1
	 connected to router 24 using link 80 at outport 6 lat 1
	 connected to router 30 using link 81 at outport 7 lat 1
router 24
	 connected to router 17 using link 82 at outport 4 lat 1
	 connected to router 23 using link 83 at outport 5 lat 1
	 connected to router 25 using link 84 at outport 6 lat 1
	 connected to router 31 using link 85 at outport 7 lat 1
router 25
	 connected to router 18 using link 86 at outport 4 lat 1
	 connected to router 24 using link 87 at outport 5 lat 1
	 connected to router 26 using link 88 at outport 6 lat 1
	 connected to router 32 using link 89 at outport 7 lat 1
router 26
	 connected to router 19 using link 90 at outport 4 lat 1
	 connected to router 25 using link 91 at outport 5 lat 1
	 connected to router 27 using link 92 at outport 6 lat 1
	 connected to router 33 using link 93 at outport 7 lat 1
router 27
	 connected to router 20 using link 94 at outport 4 lat 1
	 connected to router 26 using link 95 at outport 5 lat 1
	 connected to router 34 using link 96 at outport 6 lat 1
router 28
	 connected to router 21 using link 97 at outport 4 lat 1
	 connected to router 29 using link 98 at outport 5 lat 1
	 connected to router 35 using link 99 at outport 6 lat 1
router 29
	 connected to router 22 using link 100 at outport 4 lat 1
	 connected to router 28 using link 101 at outport 5 lat 1
	 connected to router 30 using link 102 at outport 6 lat 1
	 connected to router 36 using link 103 at outport 7 lat 1
router 30
	 connected to router 23 using link 104 at outport 4 lat 1
	 connected to router 29 using link 105 at outport 5 lat 1
	 connected to router 31 using link 106 at outport 6 lat 1
	 connected to router 37 using link 107 at outport 7 lat 1
router 31
	 connected to router 24 using link 108 at outport 4 lat 1
	 connected to router 30 using link 109 at outport 5 lat 1
	 connected to router 32 using link 110 at outport 6 lat 1
	 connected to router 38 using link 111 at outport 7 lat 1
router 32
	 connected to router 25 using link 112 at outport 4 lat 1
	 connected to router 31 using link 113 at outport 5 lat 1
	 connected to router 33 using link 114 at outport 6 lat 1
	 connected to router 39 using link 115 at outport 7 lat 1
router 33
	 connected to router 26 using link 116 at outport 4 lat 1
	 connected to router 32 using link 117 at outport 5 lat 1
	 connected to router 34 using link 118 at outport 6 lat 1
	 connected to router 40 using link 119 at outport 7 lat 1
router 34
	 connected to router 27 using link 120 at outport 4 lat 1
	 connected to router 33 using link 121 at outport 5 lat 1
	 connected to router 41 using link 122 at outport 6 lat 1
router 35
	 connected to router 28 using link 123 at outport 4 lat 1
	 connected to router 36 using link 124 at outport 5 lat 1
router 36
	 connected to router 29 using link 125 at outport 4 lat 1
	 connected to router 35 using link 126 at outport 5 lat 1
	 connected to router 37 using link 127 at outport 6 lat 1
router 37
	 connected to router 30 using link 128 at outport 4 lat 1
	 connected to router 36 using link 129 at outport 5 lat 1
	 connected to router 38 using link 130 at outport 6 lat 1
router 38
	 connected to router 31 using link 131 at outport 4 lat 1
	 connected to router 37 using link 132 at outport 5 lat 1
	 connected to router 39 using link 133 at outport 6 lat 1
router 39
	 connected to router 32 using link 134 at outport 4 lat 1
	 connected to router 38 using link 135 at outport 5 lat 1
	 connected to router 40 using link 136 at outport 6 lat 1
router 40
	 connected to router 33 using link 137 at outport 4 lat 1
	 connected to router 39 using link 138 at outport 5 lat 1
	 connected to router 41 using link 139 at outport 6 lat 1
router 41
	 connected to router 34 using link 140 at outport 4 lat 1
	 connected to router 40 using link 141 at outport 5 lat 1
========================== Routing table  =====================
========================Network File Parsed=================
******************node listing**********************
Node 0	Router 0
Node 1	Router 0
Node 2	Router 0
Node 3	Router 0
Node 4	Router 1
Node 5	Router 1
Node 6	Router 1
Node 7	Router 1
Node 8	Router 2
Node 9	Router 2
Node 10	Router 2
Node 11	Router 2
Node 12	Router 3
Node 13	Router 3
Node 14	Router 3
Node 15	Router 3
Node 16	Router 4
Node 17	Router 4
Node 18	Router 4
Node 19	Router 4
Node 20	Router 5
Node 21	Router 5
Node 22	Router 5
Node 23	Router 5
Node 24	Router 6
Node 25	Router 6
Node 26	Router 6
Node 27	Router 6
Node 28	Router 7
Node 29	Router 7
Node 30	Router 7
Node 31	Router 7
Node 32	Router 8
Node 33	Router 8
Node 34	Router 8
Node 35	Router 8
Node 36	Router 9
Node 37	Router 9
Node 38	Router 9
Node 39	Router 9
Node 40	Router 10
Node 41	Router 10
Node 42	Router 10
Node 43	Router 10
Node 44	Router 11
Node 45	Router 11
Node 46	Router 11
Node 47	Router 11
Node 48	Router 12
Node 49	Router 12
Node 50	Router 12
Node 51	Router 12
Node 52	Router 13
Node 53	Router 13
Node 54	Router 13
Node 55	Router 13
Node 56	Router 14
Node 57	Router 14
Node 58	Router 14
Node 59	Router 14
Node 60	Router 15
Node 61	Router 15
Node 62	Router 15
Node 63	Router 15
Node 64	Router 16
Node 65	Router 16
Node 66	Router 16
Node 67	Router 16
Node 68	Router 17
Node 69	Router 17
Node 70	Router 17
Node 71	Router 17
Node 72	Router 18
Node 73	Router 18
Node 74	Router 18
Node 75	Router 18
Node 76	Router 19
Node 77	Router 19
Node 78	Router 19
Node 79	Router 19
Node 80	Router 20
Node 81	Router 20
Node 82	Router 20
Node 83	Router 20
Node 84	Router 21
Node 85	Router 21
Node 86	Router 21
Node 87	Router 21
Node 88	Router 22
Node 89	Router 22
Node 90	Router 22
Node 91	Router 22
Node 92	Router 23
Node 93	Router 23
Node 94	Router 23
Node 95	Router 23
Node 96	Router 24
Node 97	Router 24
Node 98	Router 24
Node 99	Router 24
Node 100	Router 25
Node 101	Router 25
Node 102	Router 25
Node 103	Router 25
Node 104	Router 26
Node 105	Router 26
Node 106	Router 26
Node 107	Router 26
Node 108	Router 27
Node 109	Router 27
Node 110	Router 27
Node 111	Router 27
Node 112	Router 28
Node 113	Router 28
Node 114	Router 28
Node 115	Router 28
Node 116	Router 29
Node 117	Router 29
Node 118	Router 29
Node 119	Router 29
Node 120	Router 30
Node 121	Router 30
Node 122	Router 30
Node 123	Router 30
Node 124	Router 31
Node 125	Router 31
Node 126	Router 31
Node 127	Router 31
Node 128	Router 32
Node 129	Router 32
Node 130	Router 32
Node 131	Router 32
Node 132	Router 33
Node 133	Router 33
Node 134	Router 33
Node 135	Router 33
Node 136	Router 34
Node 137	Router 34
Node 138	Router 34
Node 139	Router 34
Node 140	Router 35
Node 141	Router 35
Node 142	Router 35
Node 143	Router 35
Node 144	Router 36
Node 145	Router 36
Node 146	Router 36
Node 147	Router 36
Node 148	Router 37
Node 149	Router 37
Node 150	Router 37
Node 151	Router 37
Node 152	Router 38
Node 153	Router 38
Node 154	Router 38
Node 155	Router 38
Node 156	Router 39
Node 157	Router 39
Node 158	Router 39
Node 159	Router 39
Node 160	Router 40
Node 161	Router 40
Node 162	Router 40
Node 163	Router 40
Node 164	Router 41
Node 165	Router 41
Node 166	Router 41
Node 167	Router 41

****************router to node listing*************
Router 0
	 Node 0 lat 1
	 Node 1 lat 1
	 Node 2 lat 1
	 Node 3 lat 1
Router 1
	 Node 4 lat 1
	 Node 5 lat 1
	 Node 6 lat 1
	 Node 7 lat 1
Router 2
	 Node 8 lat 1
	 Node 9 lat 1
	 Node 10 lat 1
	 Node 11 lat 1
Router 3
	 Node 12 lat 1
	 Node 13 lat 1
	 Node 14 lat 1
	 Node 15 lat 1
Router 4
	 Node 16 lat 1
	 Node 17 lat 1
	 Node 18 lat 1
	 Node 19 lat 1
Router 5
	 Node 20 lat 1
	 Node 21 lat 1
	 Node 22 lat 1
	 Node 23 lat 1
Router 6
	 Node 24 lat 1
	 Node 25 lat 1
	 Node 26 lat 1
	 Node 27 lat 1
Router 7
	 Node 28 lat 1
	 Node 29 lat 1
	 Node 30 lat 1
	 Node 31 lat 1
Router 8
	 Node 32 lat 1
	 Node 33 lat 1
	 Node 34 lat 1
	 Node 35 lat 1
Router 9
	 Node 36 lat 1
	 Node 37 lat 1
	 Node 38 lat 1
	 Node 39 lat 1
Router 10
	 Node 40 lat 1
	 Node 41 lat 1
	 Node 42 lat 1
	 Node 43 lat 1
Router 11
	 Node 44 lat 1
	 Node 45 lat 1
	 Node 46 lat 1
	 Node 47 lat 1
Router 12
	 Node 48 lat 1
	 Node 49 lat 1
	 Node 50 lat 1
	 Node 51 lat 1
Router 13
	 Node 52 lat 1
	 Node 53 lat 1
	 Node 54 lat 1
	 Node 55 lat 1
Router 14
	 Node 56 lat 1
	 Node 57 lat 1
	 Node 58 lat 1
	 Node 59 lat 1
Router 15
	 Node 60 lat 1
	 Node 61 lat 1
	 Node 62 lat 1
	 Node 63 lat 1
Router 16
	 Node 64 lat 1
	 Node 65 lat 1
	 Node 66 lat 1
	 Node 67 lat 1
Router 17
	 Node 68 lat 1
	 Node 69 lat 1
	 Node 70 lat 1
	 Node 71 lat 1
Router 18
	 Node 72 lat 1
	 Node 73 lat 1
	 Node 74 lat 1
	 Node 75 lat 1
Router 19
	 Node 76 lat 1
	 Node 77 lat 1
	 Node 78 lat 1
	 Node 79 lat 1
Router 20
	 Node 80 lat 1
	 Node 81 lat 1
	 Node 82 lat 1
	 Node 83 lat 1
Router 21
	 Node 84 lat 1
	 Node 85 lat 1
	 Node 86 lat 1
	 Node 87 lat 1
Router 22
	 Node 88 lat 1
	 Node 89 lat 1
	 Node 90 lat 1
	 Node 91 lat 1
Router 23
	 Node 92 lat 1
	 Node 93 lat 1
	 Node 94 lat 1
	 Node 95 lat 1
Router 24
	 Node 96 lat 1
	 Node 97 lat 1
	 Node 98 lat 1
	 Node 99 lat 1
Router 25
	 Node 100 lat 1
	 Node 101 lat 1
	 Node 102 lat 1
	 Node 103 lat 1
Router 26
	 Node 104 lat 1
	 Node 105 lat 1
	 Node 106 lat 1
	 Node 107 lat 1
Router 27
	 Node 108 lat 1
	 Node 109 lat 1
	 Node 110 lat 1
	 Node 111 lat 1
Router 28
	 Node 112 lat 1
	 Node 113 lat 1
	 Node 114 lat 1
	 Node 115 lat 1
Router 29
	 Node 116 lat 1
	 Node 117 lat 1
	 Node 118 lat 1
	 Node 119 lat 1
Router 30
	 Node 120 lat 1
	 Node 121 lat 1
	 Node 122 lat 1
	 Node 123 lat 1
Router 31
	 Node 124 lat 1
	 Node 125 lat 1
	 Node 126 lat 1
	 Node 127 lat 1
Router 32
	 Node 128 lat 1
	 Node 129 lat 1
	 Node 130 lat 1
	 Node 131 lat 1
Router 33
	 Node 132 lat 1
	 Node 133 lat 1
	 Node 134 lat 1
	 Node 135 lat 1
Router 34
	 Node 136 lat 1
	 Node 137 lat 1
	 Node 138 lat 1
	 Node 139 lat 1
Router 35
	 Node 140 lat 1
	 Node 141 lat 1
	 Node 142 lat 1
	 Node 143 lat 1
Router 36
	 Node 144 lat 1
	 Node 145 lat 1
	 Node 146 lat 1
	 Node 147 lat 1
Router 37
	 Node 148 lat 1
	 Node 149 lat 1
	 Node 150 lat 1
	 Node 151 lat 1
Router 38
	 Node 152 lat 1
	 Node 153 lat 1
	 Node 154 lat 1
	 Node 155 lat 1
Router 39
	 Node 156 lat 1
	 Node 157 lat 1
	 Node 158 lat 1
	 Node 159 lat 1
Router 40
	 Node 160 lat 1
	 Node 161 lat 1
	 Node 162 lat 1
	 Node 163 lat 1
Router 41
	 Node 164 lat 1
	 Node 165 lat 1
	 Node 166 lat 1
	 Node 167 lat 1

*****************router to router listing************
Router 0
	 Router 1 lat 1
	 Router 7 lat 1
Router 1
	 Router 0 lat 1
	 Router 2 lat 1
	 Router 8 lat 1
Router 2
	 Router 1 lat 1
	 Router 3 lat 1
	 Router 9 lat 1
Router 3
	 Router 2 lat 1
	 Router 4 lat 1
	 Router 10 lat 1
Router 4
	 Router 3 lat 1
	 Router 5 lat 1
	 Router 11 lat 1
Router 5
	 Router 4 lat 1
	 Router 6 lat 1
	 Router 12 lat 1
Router 6
	 Router 5 lat 1
	 Router 13 lat 1
Router 7
	 Router 0 lat 1
	 Router 8 lat 1
	 Router 14 lat 1
Router 8
	 Router 1 lat 1
	 Router 7 lat 1
	 Router 9 lat 1
	 Router 15 lat 1
Router 9
	 Router 2 lat 1
	 Router 8 lat 1
	 Router 10 lat 1
	 Router 16 lat 1
Router 10
	 Router 3 lat 1
	 Router 9 lat 1
	 Router 11 lat 1
	 Router 17 lat 1
Router 11
	 Router 4 lat 1
	 Router 10 lat 1
	 Router 12 lat 1
	 Router 18 lat 1
Router 12
	 Router 5 lat 1
	 Router 11 lat 1
	 Router 13 lat 1
	 Router 19 lat 1
Router 13
	 Router 6 lat 1
	 Router 12 lat 1
	 Router 20 lat 1
Router 14
	 Router 7 lat 1
	 Router 15 lat 1
	 Router 21 lat 1
Router 15
	 Router 8 lat 1
	 Router 14 lat 1
	 Router 16 lat 1
	 Router 22 lat 1
Router 16
	 Router 9 lat 1
	 Router 15 lat 1
	 Router 17 lat 1
	 Router 23 lat 1
Router 17
	 Router 10 lat 1
	 Router 16 lat 1
	 Router 18 lat 1
	 Router 24 lat 1
Router 18
	 Router 11 lat 1
	 Router 17 lat 1
	 Router 19 lat 1
	 Router 25 lat 1
Router 19
	 Router 12 lat 1
	 Router 18 lat 1
	 Router 20 lat 1
	 Router 26 lat 1
Router 20
	 Router 13 lat 1
	 Router 19 lat 1
	 Router 27 lat 1
Router 21
	 Router 14 lat 1
	 Router 22 lat 1
	 Router 28 lat 1
Router 22
	 Router 15 lat 1
	 Router 21 lat 1
	 Router 23 lat 1
	 Router 29 lat 1
Router 23
	 Router 16 lat 1
	 Router 22 lat 1
	 Router 24 lat 1
	 Router 30 lat 1
Router 24
	 Router 17 lat 1
	 Router 23 lat 1
	 Router 25 lat 1
	 Router 31 lat 1
Router 25
	 Router 18 lat 1
	 Router 24 lat 1
	 Router 26 lat 1
	 Router 32 lat 1
Router 26
	 Router 19 lat 1
	 Router 25 lat 1
	 Router 27 lat 1
	 Router 33 lat 1
Router 27
	 Router 20 lat 1
	 Router 26 lat 1
	 Router 34 lat 1
Router 28
	 Router 21 lat 1
	 Router 29 lat 1
	 Router 35 lat 1
Router 29
	 Router 22 lat 1
	 Router 28 lat 1
	 Router 30 lat 1
	 Router 36 lat 1
Router 30
	 Router 23 lat 1
	 Router 29 lat 1
	 Router 31 lat 1
	 Router 37 lat 1
Router 31
	 Router 24 lat 1
	 Router 30 lat 1
	 Router 32 lat 1
	 Router 38 lat 1
Router 32
	 Router 25 lat 1
	 Router 31 lat 1
	 Router 33 lat 1
	 Router 39 lat 1
Router 33
	 Router 26 lat 1
	 Router 32 lat 1
	 Router 34 lat 1
	 Router 40 lat 1
Router 34
	 Router 27 lat 1
	 Router 33 lat 1
	 Router 41 lat 1
Router 35
	 Router 28 lat 1
	 Router 36 lat 1
Router 36
	 Router 29 lat 1
	 Router 35 lat 1
	 Router 37 lat 1
Router 37
	 Router 30 lat 1
	 Router 36 lat 1
	 Router 38 lat 1
Router 38
	 Router 31 lat 1
	 Router 37 lat 1
	 Router 39 lat 1
Router 39
	 Router 32 lat 1
	 Router 38 lat 1
	 Router 40 lat 1
Router 40
	 Router 33 lat 1
	 Router 39 lat 1
	 Router 41 lat 1
Router 41
	 Router 34 lat 1
	 Router 40 lat 1
==========================Node to Router =====================
router 0 radix 6
	 connected to node 0 at outport 0 lat 1
	 connected to node 1 at outport 1 lat 1
	 connected to node 2 at outport 2 lat 1
	 connected to node 3 at outport 3 lat 1
router 1 radix 7
	 connected to node 4 at outport 0 lat 1
	 connected to node 5 at outport 1 lat 1
	 connected to node 6 at outport 2 lat 1
	 connected to node 7 at outport 3 lat 1
router 2 radix 7
	 connected to node 8 at outport 0 lat 1
	 connected to node 9 at outport 1 lat 1
	 connected to node 10 at outport 2 lat 1
	 connected to node 11 at outport 3 lat 1
router 3 radix 7
	 connected to node 12 at outport 0 lat 1
	 connected to node 13 at outport 1 lat 1
	 connected to node 14 at outport 2 lat 1
	 connected to node 15 at outport 3 lat 1
router 4 radix 7
	 connected to node 16 at outport 0 lat 1
	 connected to node 17 at outport 1 lat 1
	 connected to node 18 at outport 2 lat 1
	 connected to node 19 at outport 3 lat 1
router 5 radix 7
	 connected to node 20 at outport 0 lat 1
	 connected to node 21 at outport 1 lat 1
	 connected to node 22 at outport 2 lat 1
	 connected to node 23 at outport 3 lat 1
router 6 radix 6
	 connected to node 24 at outport 0 lat 1
	 connected to node 25 at outport 1 lat 1
	 connected to node 26 at outport 2 lat 1
	 connected to node 27 at outport 3 lat 1
router 7 radix 7
	 connected to node 28 at outport 0 lat 1
	 connected to node 29 at outport 1 lat 1
	 connected to node 30 at outport 2 lat 1
	 connected to node 31 at outport 3 lat 1
router 8 radix 8
	 connected to node 32 at outport 0 lat 1
	 connected to node 33 at outport 1 lat 1
	 connected to node 34 at outport 2 lat 1
	 connected to node 35 at outport 3 lat 1
router 9 radix 8
	 connected to node 36 at outport 0 lat 1
	 connected to node 37 at outport 1 lat 1
	 connected to node 38 at outport 2 lat 1
	 connected to node 39 at outport 3 lat 1
router 10 radix 8
	 connected to node 40 at outport 0 lat 1
	 connected to node 41 at outport 1 lat 1
	 connected to node 42 at outport 2 lat 1
	 connected to node 43 at outport 3 lat 1
router 11 radix 8
	 connected to node 44 at outport 0 lat 1
	 connected to node 45 at outport 1 lat 1
	 connected to node 46 at outport 2 lat 1
	 connected to node 47 at outport 3 lat 1
router 12 radix 8
	 connected to node 48 at outport 0 lat 1
	 connected to node 49 at outport 1 lat 1
	 connected to node 50 at outport 2 lat 1
	 connected to node 51 at outport 3 lat 1
router 13 radix 7
	 connected to node 52 at outport 0 lat 1
	 connected to node 53 at outport 1 lat 1
	 connected to node 54 at outport 2 lat 1
	 connected to node 55 at outport 3 lat 1
router 14 radix 7
	 connected to node 56 at outport 0 lat 1
	 connected to node 57 at outport 1 lat 1
	 connected to node 58 at outport 2 lat 1
	 connected to node 59 at outport 3 lat 1
router 15 radix 8
	 connected to node 60 at outport 0 lat 1
	 connected to node 61 at outport 1 lat 1
	 connected to node 62 at outport 2 lat 1
	 connected to node 63 at outport 3 lat 1
router 16 radix 8
	 connected to node 64 at outport 0 lat 1
	 connected to node 65 at outport 1 lat 1
	 connected to node 66 at outport 2 lat 1
	 connected to node 67 at outport 3 lat 1
router 17 radix 8
	 connected to node 68 at outport 0 lat 1
	 connected to node 69 at outport 1 lat 1
	 connected to node 70 at outport 2 lat 1
	 connected to node 71 at outport 3 lat 1
router 18 radix 8
	 connected to node 72 at outport 0 lat 1
	 connected to node 73 at outport 1 lat 1
	 connected to node 74 at outport 2 lat 1
	 connected to node 75 at outport 3 lat 1
router 19 radix 8
	 connected to node 76 at outport 0 lat 1
	 connected to node 77 at outport 1 lat 1
	 connected to node 78 at outport 2 lat 1
	 connected to node 79 at outport 3 lat 1
router 20 radix 7
	 connected to node 80 at outport 0 lat 1
	 connected to node 81 at outport 1 lat 1
	 connected to node 82 at outport 2 lat 1
	 connected to node 83 at outport 3 lat 1
router 21 radix 7
	 connected to node 84 at outport 0 lat 1
	 connected to node 85 at outport 1 lat 1
	 connected to node 86 at outport 2 lat 1
	 connected to node 87 at outport 3 lat 1
router 22 radix 8
	 connected to node 88 at outport 0 lat 1
	 connected to node 89 at outport 1 lat 1
	 connected to node 90 at outport 2 lat 1
	 connected to node 91 at outport 3 lat 1
router 23 radix 8
	 connected to node 92 at outport 0 lat 1
	 connected to node 93 at outport 1 lat 1
	 connected to node 94 at outport 2 lat 1
	 connected to node 95 at outport 3 lat 1
router 24 radix 8
	 connected to node 96 at outport 0 lat 1
	 connected to node 97 at outport 1 lat 1
	 connected to node 98 at outport 2 lat 1
	 connected to node 99 at outport 3 lat 1
router 25 radix 8
	 connected to node 100 at outport 0 lat 1
	 connected to node 101 at outport 1 lat 1
	 connected to node 102 at outport 2 lat 1
	 connected to node 103 at outport 3 lat 1
router 26 radix 8
	 connected to node 104 at outport 0 lat 1
	 connected to node 105 at outport 1 lat 1
	 connected to node 106 at outport 2 lat 1
	 connected to node 107 at outport 3 lat 1
router 27 radix 7
	 connected to node 108 at outport 0 lat 1
	 connected to node 109 at outport 1 lat 1
	 connected to node 110 at outport 2 lat 1
	 connected to node 111 at outport 3 lat 1
router 28 radix 7
	 connected to node 112 at outport 0 lat 1
	 connected to node 113 at outport 1 lat 1
	 connected to node 114 at outport 2 lat 1
	 connected to node 115 at outport 3 lat 1
router 29 radix 8
	 connected to node 116 at outport 0 lat 1
	 connected to node 117 at outport 1 lat 1
	 connected to node 118 at outport 2 lat 1
	 connected to node 119 at outport 3 lat 1
router 30 radix 8
	 connected to node 120 at outport 0 lat 1
	 connected to node 121 at outport 1 lat 1
	 connected to node 122 at outport 2 lat 1
	 connected to node 123 at outport 3 lat 1
router 31 radix 8
	 connected to node 124 at outport 0 lat 1
	 connected to node 125 at outport 1 lat 1
	 connected to node 126 at outport 2 lat 1
	 connected to node 127 at outport 3 lat 1
router 32 radix 8
	 connected to node 128 at outport 0 lat 1
	 connected to node 129 at outport 1 lat 1
	 connected to node 130 at outport 2 lat 1
	 connected to node 131 at outport 3 lat 1
router 33 radix 8
	 connected to node 132 at outport 0 lat 1
	 connected to node 133 at outport 1 lat 1
	 connected to node 134 at outport 2 lat 1
	 connected to node 135 at outport 3 lat 1
router 34 radix 7
	 connected to node 136 at outport 0 lat 1
	 connected to node 137 at outport 1 lat 1
	 connected to node 138 at outport 2 lat 1
	 connected to node 139 at outport 3 lat 1
router 35 radix 6
	 connected to node 140 at outport 0 lat 1
	 connected to node 141 at outport 1 lat 1
	 connected to node 142 at outport 2 lat 1
	 connected to node 143 at outport 3 lat 1
router 36 radix 7
	 connected to node 144 at outport 0 lat 1
	 connected to node 145 at outport 1 lat 1
	 connected to node 146 at outport 2 lat 1
	 connected to node 147 at outport 3 lat 1
router 37 radix 7
	 connected to node 148 at outport 0 lat 1
	 connected to node 149 at outport 1 lat 1
	 connected to node 150 at outport 2 lat 1
	 connected to node 151 at outport 3 lat 1
router 38 radix 7
	 connected to node 152 at outport 0 lat 1
	 connected to node 153 at outport 1 lat 1
	 connected to node 154 at outport 2 lat 1
	 connected to node 155 at outport 3 lat 1
router 39 radix 7
	 connected to node 156 at outport 0 lat 1
	 connected to node 157 at outport 1 lat 1
	 connected to node 158 at outport 2 lat 1
	 connected to node 159 at outport 3 lat 1
router 40 radix 7
	 connected to node 160 at outport 0 lat 1
	 connected to node 161 at outport 1 lat 1
	 connected to node 162 at outport 2 lat 1
	 connected to node 163 at outport 3 lat 1
router 41 radix 6
	 connected to node 164 at outport 0 lat 1
	 connected to node 165 at outport 1 lat 1
	 connected to node 166 at outport 2 lat 1
	 connected to node 167 at outport 3 lat 1
==========================Router to Router =====================
router 0
	 connected to router 1 using link 0 at outport 4 lat 1
	 connected to router 7 using link 1 at outport 5 lat 1
router 1
	 connected to router 0 using link 2 at outport 4 lat 1
	 connected to router 2 using link 3 at outport 5 lat 1
	 connected to router 8 using link 4 at outport 6 lat 1
router 2
	 connected to router 1 using link 5 at outport 4 lat 1
	 connected to router 3 using link 6 at outport 5 lat 1
	 connected to router 9 using link 7 at outport 6 lat 1
router 3
	 connected to router 2 using link 8 at outport 4 lat 1
	 connected to router 4 using link 9 at outport 5 lat 1
	 connected to router 10 using link 10 at outport 6 lat 1
router 4
	 connected to router 3 using link 11 at outport 4 lat 1
	 connected to router 5 using link 12 at outport 5 lat 1
	 connected to router 11 using link 13 at outport 6 lat 1
router 5
	 connected to router 4 using link 14 at outport 4 lat 1
	 connected to router 6 using link 15 at outport 5 lat 1
	 connected to router 12 using link 16 at outport 6 lat 1
router 6
	 connected to router 5 using link 17 at outport 4 lat 1
	 connected to router 13 using link 18 at outport 5 lat 1
router 7
	 connected to router 0 using link 19 at outport 4 lat 1
	 connected to router 8 using link 20 at outport 5 lat 1
	 connected to router 14 using link 21 at outport 6 lat 1
router 8
	 connected to router 1 using link 22 at outport 4 lat 1
	 connected to router 7 using link 23 at outport 5 lat 1
	 connected to router 9 using link 24 at outport 6 lat 1
	 connected to router 15 using link 25 at outport 7 lat 1
router 9
	 connected to router 2 using link 26 at outport 4 lat 1
	 connected to router 8 using link 27 at outport 5 lat 1
	 connected to router 10 using link 28 at outport 6 lat 1
	 connected to router 16 using link 29 at outport 7 lat 1
router 10
	 connected to router 3 using link 30 at outport 4 lat 1
	 connected to router 9 using link 31 at outport 5 lat 1
	 connected to router 11 using link 32 at outport 6 lat 1
	 connected to router 17 using link 33 at outport 7 lat 1
router 11
	 connected to router 4 using link 34 at outport 4 lat 1
	 connected to router 10 using link 35 at outport 5 lat 1
	 connected to router 12 using link 36 at outport 6 lat 1
	 connected to router 18 using link 37 at outport 7 lat 1
router 12
	 connected to router 5 using link 38 at outport 4 lat 1
	 connected to router 11 using link 39 at outport 5 lat 1
	 connected to router 13 using link 40 at outport 6 lat 1
	 connected to router 19 using link 41 at outport 7 lat 1
router 13
	 connected to router 6 using link 42 at outport 4 lat 1
	 connected to router 12 using link 43 at outport 5 lat 1
	 connected to router 20 using link 44 at outport 6 lat 1
router 14
	 connected to router 7 using link 45 at outport 4 lat 1
	 connected to router 15 using link 46 at outport 5 lat 1
	 connected to router 21 using link 47 at outport 6 lat 1
router 15
	 connected to router 8 using link 48 at outport 4 lat 1
	 connected to router 14 using link 49 at outport 5 lat 1
	 connected to router 16 using link 50 at outport 6 lat 1
	 connected to router 22 using link 51 at outport 7 lat 1
router 16
	 connected to router 9 using link 52 at outport 4 lat 1
	 connected to router 15 using link 53 at outport 5 lat 1
	 connected to router 17 using link 54 at outport 6 lat 1
	 connected to router 23 using link 55 at outport 7 lat 1
router 17
	 connected to router 10 using link 56 at outport 4 lat 1
	 connected to router 16 using link 57 at outport 5 lat 1
	 connected to router 18 using link 58 at outport 6 lat 1
	 connected to router 24 using link 59 at outport 7 lat 1
router 18
	 connected to router 11 using link 60 at outport 4 lat 1
	 connected to router 17 using link 61 at outport 5 lat 1
	 connected to router 19 using link 62 at outport 6 lat 1
	 connected to router 25 using link 63 at outport 7 lat 1
router 19
	 connected to router 12 using link 64 at outport 4 lat 1
	 connected to router 18 using link 65 at outport 5 lat 1
	 connected to router 20 using link 66 at outport 6 lat 1
	 connected to router 26 using link 67 at outport 7 lat 1
router 20
	 connected to router 13 using link 68 at outport 4 lat 1
	 connected to router 19 using link 69 at outport 5 lat 1
	 connected to router 27 using link 70 at outport 6 lat 1
router 21
	 connected to router 14 using link 71 at outport 4 lat 1
	 connected to router 22 using link 72 at outport 5 lat 1
	 connected to router 28 using link 73 at outport 6 lat 1
router 22
	 connected to router 15 using link 74 at outport 4 lat 1
	 connected to router 21 using link 75 at outport 5 lat 1
	 connected to router 23 using link 76 at outport 6 lat 1
	 connected to router 29 using link 77 at outport 7 lat 1
router 23
	 connected to router 16 using link 78 at outport 4 lat 1
	 connected to router 22 using link 79 at outport 5 lat 1
	 connected to router 24 using link 80 at outport 6 lat 1
	 connected to router 30 using link 81 at outport 7 lat 1
router 24
	 connected to router 17 using link 82 at outport 4 lat 1
	 connected to router 23 using link 83 at outport 5 lat 1
	 connected to router 25 using link 84 at outport 6 lat 1
	 connected to router 31 using link 85 at outport 7 lat 1
router 25
	 connected to router 18 using link 86 at outport 4 lat 1
	 connected to router 24 using link 87 at outport 5 lat 1
	 connected to router 26 using link 88 at outport 6 lat 1
	 connected to router 32 using link 89 at outport 7 lat 1
router 26
	 connected to router 19 using link 90 at outport 4 lat 1
	 connected to router 25 using link 91 at outport 5 lat 1
	 connected to router 27 using link 92 at outport 6 lat 1
	 connected to router 33 using link 93 at outport 7 lat 1
router 27
	 connected to router 20 using link 94 at outport 4 lat 1
	 connected to router 26 using link 95 at outport 5 lat 1
	 connected to router 34 using link 96 at outport 6 lat 1
router 28
	 connected to router 21 using link 97 at outport 4 lat 1
	 connected to router 29 using link 98 at outport 5 lat 1
	 connected to router 35 using link 99 at outport 6 lat 1
router 29
	 connected to router 22 using link 100 at outport 4 lat 1
	 connected to router 28 using link 101 at outport 5 lat 1
	 connected to router 30 using link 102 at outport 6 lat 1
	 connected to router 36 using link 103 at outport 7 lat 1
router 30
	 connected to router 23 using link 104 at outport 4 lat 1
	 connected to router 29 using link 105 at outport 5 lat 1
	 connected to router 31 using link 106 at outport 6 lat 1
	 connected to router 37 using link 107 at outport 7 lat 1
router 31
	 connected to router 24 using link 108 at outport 4 lat 1
	 connected to router 30 using link 109 at outport 5 lat 1
	 connected to router 32 using link 110 at outport 6 lat 1
	 connected to router 38 using link 111 at outport 7 lat 1
router 32
	 connected to router 25 using link 112 at outport 4 lat 1
	 connected to router 31 using link 113 at outport 5 lat 1
	 connected to router 33 using link 114 at outport 6 lat 1
	 connected to router 39 using link 115 at outport 7 lat 1
router 33
	 connected to router 26 using link 116 at outport 4 lat 1
	 connected to router 32 using link 117 at outport 5 lat 1
	 connected to router 34 using link 118 at outport 6 lat 1
	 connected to router 40 using link 119 at outport 7 lat 1
router 34
	 connected to router 27 using link 120 at outport 4 lat 1
	 connected to router 33 using link 121 at outport 5 lat 1
	 connected to router 41 using link 122 at outport 6 lat 1
router 35
	 connected to router 28 using link 123 at outport 4 lat 1
	 connected to router 36 using link 124 at outport 5 lat 1
router 36
	 connected to router 29 using link 125 at outport 4 lat 1
	 connected to router 35 using link 126 at outport 5 lat 1
	 connected to router 37 using link 127 at outport 6 lat 1
router 37
	 connected to router 30 using link 128 at outport 4 lat 1
	 connected to router 36 using link 129 at outport 5 lat 1
	 connected to router 38 using link 130 at outport 6 lat 1
router 38
	 connected to router 31 using link 131 at outport 4 lat 1
	 connected to router 37 using link 132 at outport 5 lat 1
	 connected to router 39 using link 133 at outport 6 lat 1
router 39
	 connected to router 32 using link 134 at outport 4 lat 1
	 connected to router 38 using link 135 at outport 5 lat 1
	 connected to router 40 using link 136 at outport 6 lat 1
router 40
	 connected to router 33 using link 137 at outport 4 lat 1
	 connected to router 39 using link 138 at outport 5 lat 1
	 connected to router 41 using link 139 at outport 6 lat 1
router 41
	 connected to router 34 using link 140 at outport 4 lat 1
	 connected to router 40 using link 141 at outport 5 lat 1
========================== Routing table  =====================
========================Network File Parsed=================
******************node listing**********************
Node 0	Router 0
Node 1	Router 0
Node 2	Router 0
Node 3	Router 0
Node 4	Router 1
Node 5	Router 1
Node 6	Router 1
Node 7	Router 1
Node 8	Router 2
Node 9	Router 2
Node 10	Router 2
Node 11	Router 2
Node 12	Router 3
Node 13	Router 3
Node 14	Router 3
Node 15	Router 3
Node 16	Router 4
Node 17	Router 4
Node 18	Router 4
Node 19	Router 4
Node 20	Router 5
Node 21	Router 5
Node 22	Router 5
Node 23	Router 5
Node 24	Router 6
Node 25	Router 6
Node 26	Router 6
Node 27	Router 6
Node 28	Router 7
Node 29	Router 7
Node 30	Router 7
Node 31	Router 7
Node 32	Router 8
Node 33	Router 8
Node 34	Router 8
Node 35	Router 8
Node 36	Router 9
Node 37	Router 9
Node 38	Router 9
Node 39	Router 9
Node 40	Router 10
Node 41	Router 10
Node 42	Router 10
Node 43	Router 10
Node 44	Router 11
Node 45	Router 11
Node 46	Router 11
Node 47	Router 11
Node 48	Router 12
Node 49	Router 12
Node 50	Router 12
Node 51	Router 12
Node 52	Router 13
Node 53	Router 13
Node 54	Router 13
Node 55	Router 13
Node 56	Router 14
Node 57	Router 14
Node 58	Router 14
Node 59	Router 14
Node 60	Router 15
Node 61	Router 15
Node 62	Router 15
Node 63	Router 15
Node 64	Router 16
Node 65	Router 16
Node 66	Router 16
Node 67	Router 16
Node 68	Router 17
Node 69	Router 17
Node 70	Router 17
Node 71	Router 17
Node 72	Router 18
Node 73	Router 18
Node 74	Router 18
Node 75	Router 18
Node 76	Router 19
Node 77	Router 19
Node 78	Router 19
Node 79	Router 19
Node 80	Router 20
Node 81	Router 20
Node 82	Router 20
Node 83	Router 20
Node 84	Router 21
Node 85	Router 21
Node 86	Router 21
Node 87	Router 21
Node 88	Router 22
Node 89	Router 22
Node 90	Router 22
Node 91	Router 22
Node 92	Router 23
Node 93	Router 23
Node 94	Router 23
Node 95	Router 23
Node 96	Router 24
Node 97	Router 24
Node 98	Router 24
Node 99	Router 24
Node 100	Router 25
Node 101	Router 25
Node 102	Router 25
Node 103	Router 25
Node 104	Router 26
Node 105	Router 26
Node 106	Router 26
Node 107	Router 26
Node 108	Router 27
Node 109	Router 27
Node 110	Router 27
Node 111	Router 27
Node 112	Router 28
Node 113	Router 28
Node 114	Router 28
Node 115	Router 28
Node 116	Router 29
Node 117	Router 29
Node 118	Router 29
Node 119	Router 29
Node 120	Router 30
Node 121	Router 30
Node 122	Router 30
Node 123	Router 30
Node 124	Router 31
Node 125	Router 31
Node 126	Router 31
Node 127	Router 31
Node 128	Router 32
Node 129	Router 32
Node 130	Router 32
Node 131	Router 32
Node 132	Router 33
Node 133	Router 33
Node 134	Router 33
Node 135	Router 33
Node 136	Router 34
Node 137	Router 34
Node 138	Router 34
Node 139	Router 34
Node 140	Router 35
Node 141	Router 35
Node 142	Router 35
Node 143	Router 35
Node 144	Router 36
Node 145	Router 36
Node 146	Router 36
Node 147	Router 36
Node 148	Router 37
Node 149	Router 37
Node 150	Router 37
Node 151	Router 37
Node 152	Router 38
Node 153	Router 38
Node 154	Router 38
Node 155	Router 38
Node 156	Router 39
Node 157	Router 39
Node 158	Router 39
Node 159	Router 39
Node 160	Router 40
Node 161	Router 40
Node 162	Router 40
Node 163	Router 40
Node 164	Router 41
Node 165	Router 41
Node 166	Router 41
Node 167	Router 41

****************router to node listing*************
Router 0
	 Node 0 lat 1
	 Node 1 lat 1
	 Node 2 lat 1
	 Node 3 lat 1
Router 1
	 Node 4 lat 1
	 Node 5 lat 1
	 Node 6 lat 1
	 Node 7 lat 1
Router 2
	 Node 8 lat 1
	 Node 9 lat 1
	 Node 10 lat 1
	 Node 11 lat 1
Router 3
	 Node 12 lat 1
	 Node 13 lat 1
	 Node 14 lat 1
	 Node 15 lat 1
Router 4
	 Node 16 lat 1
	 Node 17 lat 1
	 Node 18 lat 1
	 Node 19 lat 1
Router 5
	 Node 20 lat 1
	 Node 21 lat 1
	 Node 22 lat 1
	 Node 23 lat 1
Router 6
	 Node 24 lat 1
	 Node 25 lat 1
	 Node 26 lat 1
	 Node 27 lat 1
Router 7
	 Node 28 lat 1
	 Node 29 lat 1
	 Node 30 lat 1
	 Node 31 lat 1
Router 8
	 Node 32 lat 1
	 Node 33 lat 1
	 Node 34 lat 1
	 Node 35 lat 1
Router 9
	 Node 36 lat 1
	 Node 37 lat 1
	 Node 38 lat 1
	 Node 39 lat 1
Router 10
	 Node 40 lat 1
	 Node 41 lat 1
	 Node 42 lat 1
	 Node 43 lat 1
Router 11
	 Node 44 lat 1
	 Node 45 lat 1
	 Node 46 lat 1
	 Node 47 lat 1
Router 12
	 Node 48 lat 1
	 Node 49 lat 1
	 Node 50 lat 1
	 Node 51 lat 1
Router 13
	 Node 52 lat 1
	 Node 53 lat 1
	 Node 54 lat 1
	 Node 55 lat 1
Router 14
	 Node 56 lat 1
	 Node 57 lat 1
	 Node 58 lat 1
	 Node 59 lat 1
Router 15
	 Node 60 lat 1
	 Node 61 lat 1
	 Node 62 lat 1
	 Node 63 lat 1
Router 16
	 Node 64 lat 1
	 Node 65 lat 1
	 Node 66 lat 1
	 Node 67 lat 1
Router 17
	 Node 68 lat 1
	 Node 69 lat 1
	 Node 70 lat 1
	 Node 71 lat 1
Router 18
	 Node 72 lat 1
	 Node 73 lat 1
	 Node 74 lat 1
	 Node 75 lat 1
Router 19
	 Node 76 lat 1
	 Node 77 lat 1
	 Node 78 lat 1
	 Node 79 lat 1
Router 20
	 Node 80 lat 1
	 Node 81 lat 1
	 Node 82 lat 1
	 Node 83 lat 1
Router 21
	 Node 84 lat 1
	 Node 85 lat 1
	 Node 86 lat 1
	 Node 87 lat 1
Router 22
	 Node 88 lat 1
	 Node 89 lat 1
	 Node 90 lat 1
	 Node 91 lat 1
Router 23
	 Node 92 lat 1
	 Node 93 lat 1
	 Node 94 lat 1
	 Node 95 lat 1
Router 24
	 Node 96 lat 1
	 Node 97 lat 1
	 Node 98 lat 1
	 Node 99 lat 1
Router 25
	 Node 100 lat 1
	 Node 101 lat 1
	 Node 102 lat 1
	 Node 103 lat 1
Router 26
	 Node 104 lat 1
	 Node 105 lat 1
	 Node 106 lat 1
	 Node 107 lat 1
Router 27
	 Node 108 lat 1
	 Node 109 lat 1
	 Node 110 lat 1
	 Node 111 lat 1
Router 28
	 Node 112 lat 1
	 Node 113 lat 1
	 Node 114 lat 1
	 Node 115 lat 1
Router 29
	 Node 116 lat 1
	 Node 117 lat 1
	 Node 118 lat 1
	 Node 119 lat 1
Router 30
	 Node 120 lat 1
	 Node 121 lat 1
	 Node 122 lat 1
	 Node 123 lat 1
Router 31
	 Node 124 lat 1
	 Node 125 lat 1
	 Node 126 lat 1
	 Node 127 lat 1
Router 32
	 Node 128 lat 1
	 Node 129 lat 1
	 Node 130 lat 1
	 Node 131 lat 1
Router 33
	 Node 132 lat 1
	 Node 133 lat 1
	 Node 134 lat 1
	 Node 135 lat 1
Router 34
	 Node 136 lat 1
	 Node 137 lat 1
	 Node 138 lat 1
	 Node 139 lat 1
Router 35
	 Node 140 lat 1
	 Node 141 lat 1
	 Node 142 lat 1
	 Node 143 lat 1
Router 36
	 Node 144 lat 1
	 Node 145 lat 1
	 Node 146 lat 1
	 Node 147 lat 1
Router 37
	 Node 148 lat 1
	 Node 149 lat 1
	 Node 150 lat 1
	 Node 151 lat 1
Router 38
	 Node 152 lat 1
	 Node 153 lat 1
	 Node 154 lat 1
	 Node 155 lat 1
Router 39
	 Node 156 lat 1
	 Node 157 lat 1
	 Node 158 lat 1
	 Node 159 lat 1
Router 40
	 Node 160 lat 1
	 Node 161 lat 1
	 Node 162 lat 1
	 Node 163 lat 1
Router 41
	 Node 164 lat 1
	 Node 165 lat 1
	 Node 166 lat 1
	 Node 167 lat 1

*****************router to router listing************
Router 0
	 Router 1 lat 1
	 Router 7 lat 1
Router 1
	 Router 0 lat 1
	 Router 2 lat 1
	 Router 8 lat 1
Router 2
	 Router 1 lat 1
	 Router 3 lat 1
	 Router 9 lat 1
Router 3
	 Router 2 lat 1
	 Router 4 lat 1
	 Router 10 lat 1
Router 4
	 Router 3 lat 1
	 Router 5 lat 1
	 Router 11 lat 1
Router 5
	 Router 4 lat 1
	 Router 6 lat 1
	 Router 12 lat 1
Router 6
	 Router 5 lat 1
	 Router 13 lat 1
Router 7
	 Router 0 lat 1
	 Router 8 lat 1
	 Router 14 lat 1
Router 8
	 Router 1 lat 1
	 Router 7 lat 1
	 Router 9 lat 1
	 Router 15 lat 1
Router 9
	 Router 2 lat 1
	 Router 8 lat 1
	 Router 10 lat 1
	 Router 16 lat 1
Router 10
	 Router 3 lat 1
	 Router 9 lat 1
	 Router 11 lat 1
	 Router 17 lat 1
Router 11
	 Router 4 lat 1
	 Router 10 lat 1
	 Router 12 lat 1
	 Router 18 lat 1
Router 12
	 Router 5 lat 1
	 Router 11 lat 1
	 Router 13 lat 1
	 Router 19 lat 1
Router 13
	 Router 6 lat 1
	 Router 12 lat 1
	 Router 20 lat 1
Router 14
	 Router 7 lat 1
	 Router 15 lat 1
	 Router 21 lat 1
Router 15
	 Router 8 lat 1
	 Router 14 lat 1
	 Router 16 lat 1
	 Router 22 lat 1
Router 16
	 Router 9 lat 1
	 Router 15 lat 1
	 Router 17 lat 1
	 Router 23 lat 1
Router 17
	 Router 10 lat 1
	 Router 16 lat 1
	 Router 18 lat 1
	 Router 24 lat 1
Router 18
	 Router 11 lat 1
	 Router 17 lat 1
	 Router 19 lat 1
	 Router 25 lat 1
Router 19
	 Router 12 lat 1
	 Router 18 lat 1
	 Router 20 lat 1
	 Router 26 lat 1
Router 20
	 Router 13 lat 1
	 Router 19 lat 1
	 Router 27 lat 1
Router 21
	 Router 14 lat 1
	 Router 22 lat 1
	 Router 28 lat 1
Router 22
	 Router 15 lat 1
	 Router 21 lat 1
	 Router 23 lat 1
	 Router 29 lat 1
Router 23
	 Router 16 lat 1
	 Router 22 lat 1
	 Router 24 lat 1
	 Router 30 lat 1
Router 24
	 Router 17 lat 1
	 Router 23 lat 1
	 Router 25 lat 1
	 Router 31 lat 1
Router 25
	 Router 18 lat 1
	 Router 24 lat 1
	 Router 26 lat 1
	 Router 32 lat 1
Router 26
	 Router 19 lat 1
	 Router 25 lat 1
	 Router 27 lat 1
	 Router 33 lat 1
Router 27
	 Router 20 lat 1
	 Router 26 lat 1
	 Router 34 lat 1
Router 28
	 Router 21 lat 1
	 Router 29 lat 1
	 Router 35 lat 1
Router 29
	 Router 22 lat 1
	 Router 28 lat 1
	 Router 30 lat 1
	 Router 36 lat 1
Router 30
	 Router 23 lat 1
	 Router 29 lat 1
	 Router 31 lat 1
	 Router 37 lat 1
Router 31
	 Router 24 lat 1
	 Router 30 lat 1
	 Router 32 lat 1
	 Router 38 lat 1
Router 32
	 Router 25 lat 1
	 Router 31 lat 1
	 Router 33 lat 1
	 Router 39 lat 1
Router 33
	 Router 26 lat 1
	 Router 32 lat 1
	 Router 34 lat 1
	 Router 40 lat 1
Router 34
	 Router 27 lat 1
	 Router 33 lat 1
	 Router 41 lat 1
Router 35
	 Router 28 lat 1
	 Router 36 lat 1
Router 36
	 Router 29 lat 1
	 Router 35 lat 1
	 Router 37 lat 1
Router 37
	 Router 30 lat 1
	 Router 36 lat 1
	 Router 38 lat 1
Router 38
	 Router 31 lat 1
	 Router 37 lat 1
	 Router 39 lat 1
Router 39
	 Router 32 lat 1
	 Router 38 lat 1
	 Router 40 lat 1
Router 40
	 Router 33 lat 1
	 Router 39 lat 1
	 Router 41 lat 1
Router 41
	 Router 34 lat 1
	 Router 40 lat 1
==========================Node to Router =====================
router 0 radix 6
	 connected to node 0 at outport 0 lat 1
	 connected to node 1 at outport 1 lat 1
	 connected to node 2 at outport 2 lat 1
	 connected to node 3 at outport 3 lat 1
router 1 radix 7
	 connected to node 4 at outport 0 lat 1
	 connected to node 5 at outport 1 lat 1
	 connected to node 6 at outport 2 lat 1
	 connected to node 7 at outport 3 lat 1
router 2 radix 7
	 connected to node 8 at outport 0 lat 1
	 connected to node 9 at outport 1 lat 1
	 connected to node 10 at outport 2 lat 1
	 connected to node 11 at outport 3 lat 1
router 3 radix 7
	 connected to node 12 at outport 0 lat 1
	 connected to node 13 at outport 1 lat 1
	 connected to node 14 at outport 2 lat 1
	 connected to node 15 at outport 3 lat 1
router 4 radix 7
	 connected to node 16 at outport 0 lat 1
	 connected to node 17 at outport 1 lat 1
	 connected to node 18 at outport 2 lat 1
	 connected to node 19 at outport 3 lat 1
router 5 radix 7
	 connected to node 20 at outport 0 lat 1
	 connected to node 21 at outport 1 lat 1
	 connected to node 22 at outport 2 lat 1
	 connected to node 23 at outport 3 lat 1
router 6 radix 6
	 connected to node 24 at outport 0 lat 1
	 connected to node 25 at outport 1 lat 1
	 connected to node 26 at outport 2 lat 1
	 connected to node 27 at outport 3 lat 1
router 7 radix 7
	 connected to node 28 at outport 0 lat 1
	 connected to node 29 at outport 1 lat 1
	 connected to node 30 at outport 2 lat 1
	 connected to node 31 at outport 3 lat 1
router 8 radix 8
	 connected to node 32 at outport 0 lat 1
	 connected to node 33 at outport 1 lat 1
	 connected to node 34 at outport 2 lat 1
	 connected to node 35 at outport 3 lat 1
router 9 radix 8
	 connected to node 36 at outport 0 lat 1
	 connected to node 37 at outport 1 lat 1
	 connected to node 38 at outport 2 lat 1
	 connected to node 39 at outport 3 lat 1
router 10 radix 8
	 connected to node 40 at outport 0 lat 1
	 connected to node 41 at outport 1 lat 1
	 connected to node 42 at outport 2 lat 1
	 connected to node 43 at outport 3 lat 1
router 11 radix 8
	 connected to node 44 at outport 0 lat 1
	 connected to node 45 at outport 1 lat 1
	 connected to node 46 at outport 2 lat 1
	 connected to node 47 at outport 3 lat 1
router 12 radix 8
	 connected to node 48 at outport 0 lat 1
	 connected to node 49 at outport 1 lat 1
	 connected to node 50 at outport 2 lat 1
	 connected to node 51 at outport 3 lat 1
router 13 radix 7
	 connected to node 52 at outport 0 lat 1
	 connected to node 53 at outport 1 lat 1
	 connected to node 54 at outport 2 lat 1
	 connected to node 55 at outport 3 lat 1
router 14 radix 7
	 connected to node 56 at outport 0 lat 1
	 connected to node 57 at outport 1 lat 1
	 connected to node 58 at outport 2 lat 1
	 connected to node 59 at outport 3 lat 1
router 15 radix 8
	 connected to node 60 at outport 0 lat 1
	 connected to node 61 at outport 1 lat 1
	 connected to node 62 at outport 2 lat 1
	 connected to node 63 at outport 3 lat 1
router 16 radix 8
	 connected to node 64 at outport 0 lat 1
	 connected to node 65 at outport 1 lat 1
	 connected to node 66 at outport 2 lat 1
	 connected to node 67 at outport 3 lat 1
router 17 radix 8
	 connected to node 68 at outport 0 lat 1
	 connected to node 69 at outport 1 lat 1
	 connected to node 70 at outport 2 lat 1
	 connected to node 71 at outport 3 lat 1
router 18 radix 8
	 connected to node 72 at outport 0 lat 1
	 connected to node 73 at outport 1 lat 1
	 connected to node 74 at outport 2 lat 1
	 connected to node 75 at outport 3 lat 1
router 19 radix 8
	 connected to node 76 at outport 0 lat 1
	 connected to node 77 at outport 1 lat 1
	 connected to node 78 at outport 2 lat 1
	 connected to node 79 at outport 3 lat 1
router 20 radix 7
	 connected to node 80 at outport 0 lat 1
	 connected to node 81 at outport 1 lat 1
	 connected to node 82 at outport 2 lat 1
	 connected to node 83 at outport 3 lat 1
router 21 radix 7
	 connected to node 84 at outport 0 lat 1
	 connected to node 85 at outport 1 lat 1
	 connected to node 86 at outport 2 lat 1
	 connected to node 87 at outport 3 lat 1
router 22 radix 8
	 connected to node 88 at outport 0 lat 1
	 connected to node 89 at outport 1 lat 1
	 connected to node 90 at outport 2 lat 1
	 connected to node 91 at outport 3 lat 1
router 23 radix 8
	 connected to node 92 at outport 0 lat 1
	 connected to node 93 at outport 1 lat 1
	 connected to node 94 at outport 2 lat 1
	 connected to node 95 at outport 3 lat 1
router 24 radix 8
	 connected to node 96 at outport 0 lat 1
	 connected to node 97 at outport 1 lat 1
	 connected to node 98 at outport 2 lat 1
	 connected to node 99 at outport 3 lat 1
router 25 radix 8
	 connected to node 100 at outport 0 lat 1
	 connected to node 101 at outport 1 lat 1
	 connected to node 102 at outport 2 lat 1
	 connected to node 103 at outport 3 lat 1
router 26 radix 8
	 connected to node 104 at outport 0 lat 1
	 connected to node 105 at outport 1 lat 1
	 connected to node 106 at outport 2 lat 1
	 connected to node 107 at outport 3 lat 1
router 27 radix 7
	 connected to node 108 at outport 0 lat 1
	 connected to node 109 at outport 1 lat 1
	 connected to node 110 at outport 2 lat 1
	 connected to node 111 at outport 3 lat 1
router 28 radix 7
	 connected to node 112 at outport 0 lat 1
	 connected to node 113 at outport 1 lat 1
	 connected to node 114 at outport 2 lat 1
	 connected to node 115 at outport 3 lat 1
router 29 radix 8
	 connected to node 116 at outport 0 lat 1
	 connected to node 117 at outport 1 lat 1
	 connected to node 118 at outport 2 lat 1
	 connected to node 119 at outport 3 lat 1
router 30 radix 8
	 connected to node 120 at outport 0 lat 1
	 connected to node 121 at outport 1 lat 1
	 connected to node 122 at outport 2 lat 1
	 connected to node 123 at outport 3 lat 1
router 31 radix 8
	 connected to node 124 at outport 0 lat 1
	 connected to node 125 at outport 1 lat 1
	 connected to node 126 at outport 2 lat 1
	 connected to node 127 at outport 3 lat 1
router 32 radix 8
	 connected to node 128 at outport 0 lat 1
	 connected to node 129 at outport 1 lat 1
	 connected to node 130 at outport 2 lat 1
	 connected to node 131 at outport 3 lat 1
router 33 radix 8
	 connected to node 132 at outport 0 lat 1
	 connected to node 133 at outport 1 lat 1
	 connected to node 134 at outport 2 lat 1
	 connected to node 135 at outport 3 lat 1
router 34 radix 7
	 connected to node 136 at outport 0 lat 1
	 connected to node 137 at outport 1 lat 1
	 connected to node 138 at outport 2 lat 1
	 connected to node 139 at outport 3 lat 1
router 35 radix 6
	 connected to node 140 at outport 0 lat 1
	 connected to node 141 at outport 1 lat 1
	 connected to node 142 at outport 2 lat 1
	 connected to node 143 at outport 3 lat 1
router 36 radix 7
	 connected to node 144 at outport 0 lat 1
	 connected to node 145 at outport 1 lat 1
	 connected to node 146 at outport 2 lat 1
	 connected to node 147 at outport 3 lat 1
router 37 radix 7
	 connected to node 148 at outport 0 lat 1
	 connected to node 149 at outport 1 lat 1
	 connected to node 150 at outport 2 lat 1
	 connected to node 151 at outport 3 lat 1
router 38 radix 7
	 connected to node 152 at outport 0 lat 1
	 connected to node 153 at outport 1 lat 1
	 connected to node 154 at outport 2 lat 1
	 connected to node 155 at outport 3 lat 1
router 39 radix 7
	 connected to node 156 at outport 0 lat 1
	 connected to node 157 at outport 1 lat 1
	 connected to node 158 at outport 2 lat 1
	 connected to node 159 at outport 3 lat 1
router 40 radix 7
	 connected to node 160 at outport 0 lat 1
	 connected to node 161 at outport 1 lat 1
	 connected to node 162 at outport 2 lat 1
	 connected to node 163 at outport 3 lat 1
router 41 radix 6
	 connected to node 164 at outport 0 lat 1
	 connected to node 165 at outport 1 lat 1
	 connected to node 166 at outport 2 lat 1
	 connected to node 167 at outport 3 lat 1
==========================Router to Router =====================
router 0
	 connected to router 1 using link 0 at outport 4 lat 1
	 connected to router 7 using link 1 at outport 5 lat 1
router 1
	 connected to router 0 using link 2 at outport 4 lat 1
	 connected to router 2 using link 3 at outport 5 lat 1
	 connected to router 8 using link 4 at outport 6 lat 1
router 2
	 connected to router 1 using link 5 at outport 4 lat 1
	 connected to router 3 using link 6 at outport 5 lat 1
	 connected to router 9 using link 7 at outport 6 lat 1
router 3
	 connected to router 2 using link 8 at outport 4 lat 1
	 connected to router 4 using link 9 at outport 5 lat 1
	 connected to router 10 using link 10 at outport 6 lat 1
router 4
	 connected to router 3 using link 11 at outport 4 lat 1
	 connected to router 5 using link 12 at outport 5 lat 1
	 connected to router 11 using link 13 at outport 6 lat 1
router 5
	 connected to router 4 using link 14 at outport 4 lat 1
	 connected to router 6 using link 15 at outport 5 lat 1
	 connected to router 12 using link 16 at outport 6 lat 1
router 6
	 connected to router 5 using link 17 at outport 4 lat 1
	 connected to router 13 using link 18 at outport 5 lat 1
router 7
	 connected to router 0 using link 19 at outport 4 lat 1
	 connected to router 8 using link 20 at outport 5 lat 1
	 connected to router 14 using link 21 at outport 6 lat 1
router 8
	 connected to router 1 using link 22 at outport 4 lat 1
	 connected to router 7 using link 23 at outport 5 lat 1
	 connected to router 9 using link 24 at outport 6 lat 1
	 connected to router 15 using link 25 at outport 7 lat 1
router 9
	 connected to router 2 using link 26 at outport 4 lat 1
	 connected to router 8 using link 27 at outport 5 lat 1
	 connected to router 10 using link 28 at outport 6 lat 1
	 connected to router 16 using link 29 at outport 7 lat 1
router 10
	 connected to router 3 using link 30 at outport 4 lat 1
	 connected to router 9 using link 31 at outport 5 lat 1
	 connected to router 11 using link 32 at outport 6 lat 1
	 connected to router 17 using link 33 at outport 7 lat 1
router 11
	 connected to router 4 using link 34 at outport 4 lat 1
	 connected to router 10 using link 35 at outport 5 lat 1
	 connected to router 12 using link 36 at outport 6 lat 1
	 connected to router 18 using link 37 at outport 7 lat 1
router 12
	 connected to router 5 using link 38 at outport 4 lat 1
	 connected to router 11 using link 39 at outport 5 lat 1
	 connected to router 13 using link 40 at outport 6 lat 1
	 connected to router 19 using link 41 at outport 7 lat 1
router 13
	 connected to router 6 using link 42 at outport 4 lat 1
	 connected to router 12 using link 43 at outport 5 lat 1
	 connected to router 20 using link 44 at outport 6 lat 1
router 14
	 connected to router 7 using link 45 at outport 4 lat 1
	 connected to router 15 using link 46 at outport 5 lat 1
	 connected to router 21 using link 47 at outport 6 lat 1
router 15
	 connected to router 8 using link 48 at outport 4 lat 1
	 connected to router 14 using link 49 at outport 5 lat 1
	 connected to router 16 using link 50 at outport 6 lat 1
	 connected to router 22 using link 51 at outport 7 lat 1
router 16
	 connected to router 9 using link 52 at outport 4 lat 1
	 connected to router 15 using link 53 at outport 5 lat 1
	 connected to router 17 using link 54 at outport 6 lat 1
	 connected to router 23 using link 55 at outport 7 lat 1
router 17
	 connected to router 10 using link 56 at outport 4 lat 1
	 connected to router 16 using link 57 at outport 5 lat 1
	 connected to router 18 using link 58 at outport 6 lat 1
	 connected to router 24 using link 59 at outport 7 lat 1
router 18
	 connected to router 11 using link 60 at outport 4 lat 1
	 connected to router 17 using link 61 at outport 5 lat 1
	 connected to router 19 using link 62 at outport 6 lat 1
	 connected to router 25 using link 63 at outport 7 lat 1
router 19
	 connected to router 12 using link 64 at outport 4 lat 1
	 connected to router 18 using link 65 at outport 5 lat 1
	 connected to router 20 using link 66 at outport 6 lat 1
	 connected to router 26 using link 67 at outport 7 lat 1
router 20
	 connected to router 13 using link 68 at outport 4 lat 1
	 connected to router 19 using link 69 at outport 5 lat 1
	 connected to router 27 using link 70 at outport 6 lat 1
router 21
	 connected to router 14 using link 71 at outport 4 lat 1
	 connected to router 22 using link 72 at outport 5 lat 1
	 connected to router 28 using link 73 at outport 6 lat 1
router 22
	 connected to router 15 using link 74 at outport 4 lat 1
	 connected to router 21 using link 75 at outport 5 lat 1
	 connected to router 23 using link 76 at outport 6 lat 1
	 connected to router 29 using link 77 at outport 7 lat 1
router 23
	 connected to router 16 using link 78 at outport 4 lat 1
	 connected to router 22 using link 79 at outport 5 lat 1
	 connected to router 24 using link 80 at outport 6 lat 1
	 connected to router 30 using link 81 at outport 7 lat 1
router 24
	 connected to router 17 using link 82 at outport 4 lat 1
	 connected to router 23 using link 83 at outport 5 lat 1
	 connected to router 25 using link 84 at outport 6 lat 1
	 connected to router 31 using link 85 at outport 7 lat 1
router 25
	 connected to router 18 using link 86 at outport 4 lat 1
	 connected to router 24 using link 87 at outport 5 lat 1
	 connected to router 26 using link 88 at outport 6 lat 1
	 connected to router 32 using link 89 at outport 7 lat 1
router 26
	 connected to router 19 using link 90 at outport 4 lat 1
	 connected to router 25 using link 91 at outport 5 lat 1
	 connected to router 27 using link 92 at outport 6 lat 1
	 connected to router 33 using link 93 at outport 7 lat 1
router 27
	 connected to router 20 using link 94 at outport 4 lat 1
	 connected to router 26 using link 95 at outport 5 lat 1
	 connected to router 34 using link 96 at outport 6 lat 1
router 28
	 connected to router 21 using link 97 at outport 4 lat 1
	 connected to router 29 using link 98 at outport 5 lat 1
	 connected to router 35 using link 99 at outport 6 lat 1
router 29
	 connected to router 22 using link 100 at outport 4 lat 1
	 connected to router 28 using link 101 at outport 5 lat 1
	 connected to router 30 using link 102 at outport 6 lat 1
	 connected to router 36 using link 103 at outport 7 lat 1
router 30
	 connected to router 23 using link 104 at outport 4 lat 1
	 connected to router 29 using link 105 at outport 5 lat 1
	 connected to router 31 using link 106 at outport 6 lat 1
	 connected to router 37 using link 107 at outport 7 lat 1
router 31
	 connected to router 24 using link 108 at outport 4 lat 1
	 connected to router 30 using link 109 at outport 5 lat 1
	 connected to router 32 using link 110 at outport 6 lat 1
	 connected to router 38 using link 111 at outport 7 lat 1
router 32
	 connected to router 25 using link 112 at outport 4 lat 1
	 connected to router 31 using link 113 at outport 5 lat 1
	 connected to router 33 using link 114 at outport 6 lat 1
	 connected to router 39 using link 115 at outport 7 lat 1
router 33
	 connected to router 26 using link 116 at outport 4 lat 1
	 connected to router 32 using link 117 at outport 5 lat 1
	 connected to router 34 using link 118 at outport 6 lat 1
	 connected to router 40 using link 119 at outport 7 lat 1
router 34
	 connected to router 27 using link 120 at outport 4 lat 1
	 connected to router 33 using link 121 at outport 5 lat 1
	 connected to router 41 using link 122 at outport 6 lat 1
router 35
	 connected to router 28 using link 123 at outport 4 lat 1
	 connected to router 36 using link 124 at outport 5 lat 1
router 36
	 connected to router 29 using link 125 at outport 4 lat 1
	 connected to router 35 using link 126 at outport 5 lat 1
	 connected to router 37 using link 127 at outport 6 lat 1
router 37
[...]
	 connected to router 14 using link 21 at outport 6 lat 1
router 8
	 connected to router 1 using link 22 at outport 4 lat 1
	 connected to router 7 using link 23 at outport 5 lat 1
	 connected to router 9 using link 24 at outport 6 lat 1
	 connected to router 15 using link 25 at outport 7 lat 1
router 9
	 connected to router 2 using link 26 at outport 4 lat 1
	 connected to router 8 using link 27 at outport 5 lat 1
	 connected to router 10 using link 28 at outport 6 lat 1
	 connected to router 16 using link 29 at outport 7 lat 1
router 10
	 connected to router 3 using link 30 at outport 4 lat 1
	 connected to router 9 using link 31 at outport 5 lat 1
	 connected to router 11 using link 32 at outport 6 lat 1
	 connected to router 17 using link 33 at outport 7 lat 1
router 11
	 connected to router 4 using link 34 at outport 4 lat 1
	 connected to router 10 using link 35 at outport 5 lat 1
	 connected to router 12 using link 36 at outport 6 lat 1
	 connected to router 18 using link 37 at outport 7 lat 1
router 12
	 connected to router 5 using link 38 at outport 4 lat 1
	 connected to router 11 using link 39 at outport 5 lat 1
	 connected to router 13 using link 40 at outport 6 lat 1
	 connected to router 19 using link 41 at outport 7 lat 1
router 13
	 connected to router 6 using link 42 at outport 4 lat 1
	 connected to router 12 using link 43 at outport 5 lat 1
	 connected to router 20 using link 44 at outport 6 lat 1
router 14
	 connected to router 7 using link 45 at outport 4 lat 1
	 connected to router 15 using link 46 at outport 5 lat 1
	 connected to router 21 using link 47 at outport 6 lat 1
router 15
	 connected to router 8 using link 48 at outport 4 lat 1
	 connected to router 14 using link 49 at outport 5 lat 1
	 connected to router 16 using link 50 at outport 6 lat 1
	 connected to router 22 using link 51 at outport 7 lat 1
router 16
	 connected to router 9 using link 52 at outport 4 lat 1
	 connected to router 15 using link 53 at outport 5 lat 1
	 connected to router 17 using link 54 at outport 6 lat 1
	 connected to router 23 using link 55 at outport 7 lat 1
router 17
	 connected to router 10 using link 56 at outport 4 lat 1
	 connected to router 16 using link 57 at outport 5 lat 1
	 connected to router 18 using link 58 at outport 6 lat 1
	 connected to router 24 using link 59 at outport 7 lat 1
router 18
	 connected to router 11 using link 60 at outport 4 lat 1
	 connected to router 17 using link 61 at outport 5 lat 1
	 connected to router 19 using link 62 at outport 6 lat 1
	 connected to router 25 using link 63 at outport 7 lat 1
router 19
	 connected to router 12 using link 64 at outport 4 lat 1
	 connected to router 18 using link 65 at outport 5 lat 1
	 connected to router 20 using link 66 at outport 6 lat 1
	 connected to router 26 using link 67 at outport 7 lat 1
router 20
	 connected to router 13 using link 68 at outport 4 lat 1
	 connected to router 19 using link 69 at outport 5 lat 1
	 connected to router 27 using link 70 at outport 6 lat 1
router 21
	 connected to router 14 using link 71 at outport 4 lat 1
	 connected to router 22 using link 72 at outport 5 lat 1
	 connected to router 28 using link 73 at outport 6 lat 1
router 22
	 connected to router 15 using link 74 at outport 4 lat 1
	 connected to router 21 using link 75 at outport 5 lat 1
	 connected to router 23 using link 76 at outport 6 lat 1
	 connected to router 29 using link 77 at outport 7 lat 1
router 23
	 connected to router 16 using link 78 at outport 4 lat 1
	 connected to router 22 using link 79 at outport 5 lat 1
	 connected to router 24 using link 80 at outport 6 lat 1
	 connected to router 30 using link 81 at outport 7 lat 1
router 24
	 connected to router 17 using link 82 at outport 4 lat 1
	 connected to router 23 using link 83 at outport 5 lat 1
	 connected to router 25 using link 84 at outport 6 lat 1
	 connected to router 31 using link 85 at outport 7 lat 1
router 25
	 connected to router 18 using link 86 at outport 4 lat 1
	 connected to router 24 using link 87 at outport 5 lat 1
	 connected to router 26 using link 88 at outport 6 lat 1
	 connected to router 32 using link 89 at outport 7 lat 1
router 26
	 connected to router 19 using link 90 at outport 4 lat 1
	 connected to router 25 using link 91 at outport 5 lat 1
	 connected to router 27 using link 92 at outport 6 lat 1
	 connected to router 33 using link 93 at outport 7 lat 1
router 27
	 connected to router 20 using link 94 at outport 4 lat 1
	 connected to router 26 using link 95 at outport 5 lat 1
	 connected to router 34 using link 96 at outport 6 lat 1
router 28
	 connected to router 21 using link 97 at outport 4 lat 1
	 connected to router 29 using link 98 at outport 5 lat 1
	 connected to router 35 using link 99 at outport 6 lat 1
router 29
	 connected to router 22 using link 100 at outport 4 lat 1
	 connected to router 28 using link 101 at outport 5 lat 1
	 connected to router 30 using link 102 at outport 6 lat 1
	 connected to router 36 using link 103 at outport 7 lat 1
router 30
	 connected to router 23 using link 104 at outport 4 lat 1
	 connected to router 29 using link 105 at outport 5 lat 1
	 connected to router 31 using link 106 at outport 6 lat 1
	 connected to router 37 using link 107 at outport 7 lat 1
router 31
	 connected to router 24 using link 108 at outport 4 lat 1
	 connected to router 30 using link 109 at outport 5 lat 1
	 connected to router 32 using link 110 at outport 6 lat 1
	 connected to router 38 using link 111 at outport 7 lat 1
router 32
	 connected to router 25 using link 112 at outport 4 lat 1
	 connected to router 31 using link 113 at outport 5 lat 1
	 connected to router 33 using link 114 at outport 6 lat 1
	 connected to router 39 using link 115 at outport 7 lat 1
router 33
	 connected to router 26 using link 116 at outport 4 lat 1
	 connected to router 32 using link 117 at outport 5 lat 1
	 connected to router 34 using link 118 at outport 6 lat 1
	 connected to router 40 using link 119 at outport 7 lat 1
router 34
	 connected to router 27 using link 120 at outport 4 lat 1
	 connected to router 33 using link 121 at outport 5 lat 1
	 connected to router 41 using link 122 at outport 6 lat 1
router 35
	 connected to router 28 using link 123 at outport 4 lat 1
	 connected to router 36 using link 124 at outport 5 lat 1
router 36
	 connected to router 29 using link 125 at outport 4 lat 1
	 connected to router 35 using link 126 at outport 5 lat 1
	 connected to router 37 using link 127 at outport 6 lat 1
router 37
	 connected to router 30 using link 128 at outport 4 lat 1
	 connected to router 36 using link 129 at outport 5 lat 1
	 connected to router 38 using link 130 at outport 6 lat 1
router 38
	 connected to router 31 using link 131 at outport 4 lat 1
	 connected to router 37 using link 132 at outport 5 lat 1
	 connected to router 39 using link 133 at outport 6 lat 1
router 39
	 connected to router 32 using link 134 at outport 4 lat 1
	 connected to router 38 using link 135 at outport 5 lat 1
	 connected to router 40 using link 136 at outport 6 lat 1
router 40
	 connected to router 33 using link 137 at outport 4 lat 1
	 connected to router 39 using link 138 at outport 5 lat 1
	 connected to router 41 using link 139 at outport 6 lat 1
router 41
	 connected to router 34 using link 140 at outport 4 lat 1
	 connected to router 40 using link 141 at outport 5 lat 1
========================== Routing table  =====================
Class 0:
Packet latency average = 31.7998
	minimum = 7
	maximum = 125
Network latency average = 31.106
	minimum = 7
	maximum = 124
Slowest packet = 5482
Flit latency average = 30.9739
	minimum = 7
	maximum = 120
Slowest flit = 10534
Fragmentation average = 0.369899
	minimum = 0
	maximum = 6
Injected packet rate average = 0.0284762
	minimum = 0.016 (at node 152)
	maximum = 0.044 (at node 165)
Accepted packet rate average = 0.0275655
	minimum = 0.008 (at node 21)
	maximum = 0.05 (at node 75)
Injected flit rate average = 0.0643214
	minimum = 0.016 (at node 152)
	maximum = 0.145 (at node 63)
Accepted flit rate average= 0.0622143
	minimum = 0.02 (at node 152)
	maximum = 0.104 (at node 27)
Injected packet length average = 2.25878
Accepted packet length average = 2.25696
Total in-flight flits = 372 (0 measured)
Class 1:
Packet latency average = 28.784
	minimum = 7
	maximum = 81
Network latency average = 28.6626
	minimum = 7
	maximum = 80
Slowest packet = 3083
Flit latency average = 28.6626
	minimum = 7
	maximum = 80
Slowest flit = 5887
Fragmentation average = 0
	minimum = 0
	maximum = 0
Injected packet rate average = 0.0104643
	minimum = 0.003 (at node 96)
	maximum = 0.019 (at node 75)
Accepted packet rate average = 0.0101964
	minimum = 0 (at node 2)
	maximum = 0.032 (at node 156)
Injected flit rate average = 0.0104643
	minimum = 0.003 (at node 96)
	maximum = 0.019 (at node 75)
Accepted flit rate average= 0.0101964
	minimum = 0 (at node 2)
	maximum = 0.032 (at node 156)
Injected packet length average = 1
Accepted packet length average = 1
Total in-flight flits = 45 (0 measured)
latency change    = 1
throughput change = 1
latency change    = 1
throughput change = 1
Class 0:
Packet latency average = 31.7847
	minimum = 7
	maximum = 125
Network latency average = 31.0815
	minimum = 7
	maximum = 124
Slowest packet = 5482
Flit latency average = 30.9286
	minimum = 7
	maximum = 120
Slowest flit = 10534
Fragmentation average = 0.373929
	minimum = 0
	maximum = 7
Injected packet rate average = 0.028622
	minimum = 0.0195 (at node 157)
	maximum = 0.04 (at node 165)
Accepted packet rate average = 0.028128
	minimum = 0.0125 (at node 29)
	maximum = 0.047 (at node 78)
Injected flit rate average = 0.0643006
	minimum = 0.0195 (at node 157)
	maximum = 0.13 (at node 102)
Accepted flit rate average= 0.0632351
	minimum = 0.0325 (at node 29)
	maximum = 0.1005 (at node 86)
Injected packet length average = 2.24654
Accepted packet length average = 2.24812
Total in-flight flits = 374 (0 measured)
Class 1:
Packet latency average = 28.7644
	minimum = 7
	maximum = 133
Network latency average = 28.661
	minimum = 7
	maximum = 132
Slowest packet = 8477
Flit latency average = 28.661
	minimum = 7
	maximum = 132
Slowest flit = 16305
Fragmentation average = 0
	minimum = 0
	maximum = 0
Injected packet rate average = 0.0107262
	minimum = 0.0055 (at node 96)
	maximum = 0.018 (at node 91)
Accepted packet rate average = 0.0105714
	minimum = 0 (at node 2)
	maximum = 0.0285 (at node 5)
Injected flit rate average = 0.0107262
	minimum = 0.0055 (at node 96)
	maximum = 0.018 (at node 91)
Accepted flit rate average= 0.0105714
	minimum = 0 (at node 2)
	maximum = 0.0285 (at node 5)
Injected packet length average = 1
Accepted packet length average = 1
Total in-flight flits = 52 (0 measured)
latency change    = 0.000476594
throughput change = 0.0161435
latency change    = 0.000683018
throughput change = 0.035473
Class 0:
Packet latency average = 31.6556
	minimum = 7
	maximum = 98
Network latency average = 30.9397
	minimum = 7
	maximum = 97
Slowest packet = 17690
Flit latency average = 30.4513
	minimum = 7
	maximum = 93
Slowest flit = 33742
Fragmentation average = 0.389162
	minimum = 0
	maximum = 6
Injected packet rate average = 0.0289107
	minimum = 0.018 (at node 33)
	maximum = 0.048 (at node 16)
Accepted packet rate average = 0.0291071
	minimum = 0.01 (at node 1)
	maximum = 0.054 (at node 86)
Injected flit rate average = 0.0651964
	minimum = 0.018 (at node 33)
	maximum = 0.145 (at node 54)
Accepted flit rate average= 0.0655119
	minimum = 0.022 (at node 1)
	maximum = 0.116 (at node 86)
Injected packet length average = 2.2551
Accepted packet length average = 2.25072
Total in-flight flits = 325 (0 measured)
Class 1:
Packet latency average = 29.2152
	minimum = 7
	maximum = 88
Network latency average = 29.1316
	minimum = 7
	maximum = 87
Slowest packet = 12886
Flit latency average = 29.1316
	minimum = 7
	maximum = 87
Slowest flit = 24590
Fragmentation average = 0
	minimum = 0
	maximum = 0
Injected packet rate average = 0.0108869
	minimum = 0.004 (at node 146)
	maximum = 0.024 (at node 83)
Accepted packet rate average = 0.0108988
	minimum = 0 (at node 3)
	maximum = 0.031 (at node 16)
Injected flit rate average = 0.0108869
	minimum = 0.004 (at node 146)
	maximum = 0.024 (at node 83)
Accepted flit rate average= 0.0108988
	minimum = 0 (at node 3)
	maximum = 0.031 (at node 16)
Injected packet length average = 1
Accepted packet length average = 1
Total in-flight flits = 50 (0 measured)
latency change    = 0.00407685
throughput change = 0.0347538
latency change    = 0.0154312
throughput change = 0.0300382
Warmed up ...Time used is 3000 cycles
Class 0:
Packet latency average = 31.326
	minimum = 7
	maximum = 111
Network latency average = 30.6144
	minimum = 7
	maximum = 110
Slowest packet = 19963
Flit latency average = 30.372
	minimum = 7
	maximum = 106
Slowest flit = 38111
Fragmentation average = 0.381365
	minimum = 0
	maximum = 5
Injected packet rate average = 0.0290893
	minimum = 0.018 (at node 10)
	maximum = 0.046 (at node 48)
Accepted packet rate average = 0.0289643
	minimum = 0.009 (at node 109)
	maximum = 0.055 (at node 82)
Injected flit rate average = 0.0654583
	minimum = 0.018 (at node 96)
	maximum = 0.147 (at node 82)
Accepted flit rate average= 0.0650655
	minimum = 0.017 (at node 109)
	maximum = 0.122 (at node 151)
Injected packet length average = 2.25026
Accepted packet length average = 2.2464
Total in-flight flits = 389 (389 measured)
Class 1:
Packet latency average = 28.782
	minimum = 7
	maximum = 72
Network latency average = 28.7003
	minimum = 7
	maximum = 71
Slowest packet = 21345
Flit latency average = 28.8312
	minimum = 7
	maximum = 71
Slowest flit = 40793
Fragmentation average = 0
	minimum = 0
	maximum = 0
Injected packet rate average = 0.0109286
	minimum = 0.002 (at node 132)
	maximum = 0.022 (at node 7)
Accepted packet rate average = 0.0108631
	minimum = 0 (at node 2)
	maximum = 0.032 (at node 149)
Injected flit rate average = 0.0109286
	minimum = 0.002 (at node 132)
	maximum = 0.022 (at node 7)
Accepted flit rate average= 0.0108631
	minimum = 0 (at node 2)
	maximum = 0.032 (at node 149)
Injected packet length average = 1
Accepted packet length average = 1
Total in-flight flits = 61 (61 measured)
latency change    = 0.0105221
throughput change = 0.00686122
latency change    = 0.0150515
throughput change = 0.00328767
Class 0:
Packet latency average = 31.1843
	minimum = 7
	maximum = 111
Network latency average = 30.4754
	minimum = 7
	maximum = 110
Slowest packet = 19963
Flit latency average = 30.1224
	minimum = 7
	maximum = 106
Slowest flit = 38111
Fragmentation average = 0.385412
	minimum = 0
	maximum = 6
Injected packet rate average = 0.0292083
	minimum = 0.02 (at node 2)
	maximum = 0.042 (at node 52)
Accepted packet rate average = 0.029122
	minimum = 0.0125 (at node 60)
	maximum = 0.0485 (at node 7)
Injected flit rate average = 0.0657411
	minimum = 0.022 (at node 32)
	maximum = 0.1345 (at node 118)
Accepted flit rate average= 0.0655952
	minimum = 0.03 (at node 5)
	maximum = 0.108 (at node 7)
Injected packet length average = 2.25076
Accepted packet length average = 2.25243
Total in-flight flits = 371 (371 measured)
Class 1:
Packet latency average = 28.4504
	minimum = 7
	maximum = 80
Network latency average = 28.3719
	minimum = 7
	maximum = 79
Slowest packet = 28004
Flit latency average = 28.4417
	minimum = 7
	maximum = 79
Slowest flit = 53428
Fragmentation average = 0
	minimum = 0
	maximum = 0
Injected packet rate average = 0.0109107
	minimum = 0.004 (at node 60)
	maximum = 0.0185 (at node 7)
Accepted packet rate average = 0.010881
	minimum = 0 (at node 11)
	maximum = 0.0295 (at node 92)
Injected flit rate average = 0.0109107
	minimum = 0.004 (at node 60)
	maximum = 0.0185 (at node 7)
Accepted flit rate average= 0.010881
	minimum = 0 (at node 11)
	maximum = 0.0295 (at node 92)
Injected packet length average = 1
Accepted packet length average = 1
Total in-flight flits = 60 (60 measured)
latency change    = 0.00454378
throughput change = 0.00807623
latency change    = 0.0116558
throughput change = 0.00164114
Class 0:
Packet latency average = 31.2891
	minimum = 7
	maximum = 112
Network latency average = 30.5794
	minimum = 7
	maximum = 111
Slowest packet = 19963
Flit latency average = 30.254
	minimum = 7
	maximum = 107
Slowest flit = 70403
Fragmentation average = 0.382717
	minimum = 0
	maximum = 6
Injected packet rate average = 0.0293056
	minimum = 0.02 (at node 2)
	maximum = 0.0396667 (at node 92)
Accepted packet rate average = 0.0292857
	minimum = 0.014 (at node 140)
	maximum = 0.0466667 (at node 151)
Injected flit rate average = 0.0660476
	minimum = 0.0213333 (at node 76)
	maximum = 0.131 (at node 23)
Accepted flit rate average= 0.0660417
	minimum = 0.037 (at node 72)
	maximum = 0.100333 (at node 126)
Injected packet length average = 2.25376
Accepted packet length average = 2.25508
Total in-flight flits = 326 (326 measured)
Class 1:
Packet latency average = 28.3722
	minimum = 7
	maximum = 91
Network latency average = 28.2902
	minimum = 7
	maximum = 90
Slowest packet = 32981
Flit latency average = 28.3374
	minimum = 7
	maximum = 90
Slowest flit = 63009
Fragmentation average = 0
	minimum = 0
	maximum = 0
Injected packet rate average = 0.0109187
	minimum = 0.00633333 (at node 1)
	maximum = 0.0163333 (at node 167)
Accepted packet rate average = 0.0109087
	minimum = 0 (at node 22)
	maximum = 0.0293333 (at node 92)
Injected flit rate average = 0.0109187
	minimum = 0.00633333 (at node 1)
	maximum = 0.0163333 (at node 167)
Accepted flit rate average= 0.0109087
	minimum = 0 (at node 22)
	maximum = 0.0293333 (at node 92)
Injected packet length average = 1
Accepted packet length average = 1
Total in-flight flits = 55 (55 measured)
latency change    = 0.00334969
throughput change = 0.0067598
latency change    = 0.00275318
throughput change = 0.00254638
Draining all recorded packets ...
Draining remaining packets ...
Time taken is 6146 cycles
====== Overall Traffic Statistics ======
====== Traffic class 0 ======
Packet latency average = 31.343 (1 samples)
	minimum = 7 (1 samples)
	maximum = 112 (1 samples)
Network latency average = 30.6317 (1 samples)
	minimum = 7 (1 samples)
	maximum = 111 (1 samples)
Flit latency average = 30.2562 (1 samples)
	minimum = 7 (1 samples)
	maximum = 107 (1 samples)
Fragmentation average = 0.3843 (1 samples)
	minimum = 0 (1 samples)
	maximum = 6 (1 samples)
Injected packet rate average = 0.0293056 (1 samples)
	minimum = 0.02 (1 samples)
	maximum = 0.0396667 (1 samples)
Accepted packet rate average = 0.0292857 (1 samples)
	minimum = 0.014 (1 samples)
	maximum = 0.0466667 (1 samples)
Injected flit rate average = 0.0660476 (1 samples)
	minimum = 0.0213333 (1 samples)
	maximum = 0.131 (1 samples)
Accepted flit rate average = 0.0660417 (1 samples)
	minimum = 0.037 (1 samples)
	maximum = 0.100333 (1 samples)
Injected packet size average = 2.25376 (1 samples)
Accepted packet size average = 2.25508 (1 samples)
Hops average = 5.21875 (1 samples)
====== Traffic class 1 ======
Packet latency average = 28.4097 (1 samples)
	minimum = 7 (1 samples)
	maximum = 91 (1 samples)
Network latency average = 28.3265 (1 samples)
	minimum = 7 (1 samples)
	maximum = 90 (1 samples)
Flit latency average = 28.3235 (1 samples)
	minimum = 7 (1 samples)
	maximum = 90 (1 samples)
Fragmentation average = 0 (1 samples)
	minimum = 0 (1 samples)
	maximum = 0 (1 samples)
Injected packet rate average = 0.0109187 (1 samples)
	minimum = 0.00633333 (1 samples)
	maximum = 0.0163333 (1 samples)
Accepted packet rate average = 0.0109087 (1 samples)
	minimum = 0 (1 samples)
	maximum = 0.0293333 (1 samples)
Injected flit rate average = 0.0109187 (1 samples)
	minimum = 0.00633333 (1 samples)
	maximum = 0.0163333 (1 samples)
Accepted flit rate average = 0.0109087 (1 samples)
	minimum = 0 (1 samples)
	maximum = 0.0293333 (1 samples)
Injected packet size average = 1 (1 samples)
Accepted packet size average = 1 (1 samples)
Hops average = 5.1647 (1 samples)
Total run time 0.497679
