BEGIN Configuration File: mesh6x7_chi_v2
// CHI-style 6x7 mesh -- V2: 4 channels = 4 subnets via class_subnet patch.
// Auto-generated by gen_chi_mesh_v2.py. Requires the class_subnet source patch.
// 42 routers x 4 terminals = 168 nodes (2 RN + 2 HN each).
//
// channel/class -> subnet (open-loop, use_read_write=0):
//   c0 REQ ->0  c1 DAT(rd)->1  c2 SNP ->2  c3 RSP ->3  c4 DAT(wr)->1 (shares DAT)

topology     = anynet;
network_file = mesh6x7_chi_v2_anynet;
routing_function = min;

// 5 classes carry the 4 channels (DAT split into read-data + write-data flows)
classes = 5;
use_read_write = {0,0,0,0,0};      // open-loop one-way flows, no auto reply

// each class maps directly to a subnet, independent of read/write semantics
subnets      = 4;
class_subnet = {0,1,2,3,1};        // REQ DAT_rd SNP RSP DAT_wr

// per-channel packet sizes (16B/flit, 64B line = 5 flit)
packet_size  = {1,5,1,1,5};        // REQ DAT_rd SNP RSP DAT_wr

// per-channel destinations (source = all nodes; dest set approximates direction)
traffic = {hotspot({2,3,6,7,10,11,14,15,18,19,22,23,26,27,30,31,34,35,38,39,42,43,46,47,50,51,54,55,58,59,62,63,66,67,70,71,74,75,78,79,82,83,86,87,90,91,94,95,98,99,102,103,106,107,110,111,114,115,118,119,122,123,126,127,130,131,134,135,138,139,142,143,146,147,150,151,154,155,158,159,162,163,166,167}),hotspot({0,1,4,5,8,9,12,13,16,17,20,21,24,25,28,29,32,33,36,37,40,41,44,45,48,49,52,53,56,57,60,61,64,65,68,69,72,73,76,77,80,81,84,85,88,89,92,93,96,97,100,101,104,105,108,109,112,113,116,117,120,121,124,125,128,129,132,133,136,137,140,141,144,145,148,149,152,153,156,157,160,161,164,165}),hotspot({0,1,4,5,8,9,12,13,16,17,20,21,24,25,28,29,32,33,36,37,40,41,44,45,48,49,52,53,56,57,60,61,64,65,68,69,72,73,76,77,80,81,84,85,88,89,92,93,96,97,100,101,104,105,108,109,112,113,116,117,120,121,124,125,128,129,132,133,136,137,140,141,144,145,148,149,152,153,156,157,160,161,164,165}),hotspot({2,3,6,7,10,11,14,15,18,19,22,23,26,27,30,31,34,35,38,39,42,43,46,47,50,51,54,55,58,59,62,63,66,67,70,71,74,75,78,79,82,83,86,87,90,91,94,95,98,99,102,103,106,107,110,111,114,115,118,119,122,123,126,127,130,131,134,135,138,139,142,143,146,147,150,151,154,155,158,159,162,163,166,167}),hotspot({2,3,6,7,10,11,14,15,18,19,22,23,26,27,30,31,34,35,38,39,42,43,46,47,50,51,54,55,58,59,62,63,66,67,70,71,74,75,78,79,82,83,86,87,90,91,94,95,98,99,102,103,106,107,110,111,114,115,118,119,122,123,126,127,130,131,134,135,138,139,142,143,146,147,150,151,154,155,158,159,162,163,166,167})};

// rate-ratio model: snoop_factor=1.0, write_fraction=0.3, base req=0.001
//   DAT_rd = req*(1-wf) ; DAT_wr = req*wf ; SNP = req*snoop ; RSP = req*snoop + req*wf
injection_rate = {0.001,0.0007,0.001,0.0013,0.0003};

num_vcs     = 2;
vc_buf_size = 8;
vc_allocator = islip;
sw_allocator = islip;
alloc_iters  = 1;

sim_type       = latency;
sample_period  = 1000;
warmup_periods = 3;
sim_count      = 1;

END Configuration File: mesh6x7_chi_v2
========================Network File Parsed=================
******************node listing**********************
Node 0	Router 0
Node 1	Router 0
Node 2	Router 0
Node 3	Router 0
Node 4	Router 1
Node 5	Router 1
Node 6	Router 1
Node 7	Router 1
Node 8	Router 2
Node 9	Router 2
Node 10	Router 2
Node 11	Router 2
Node 12	Router 3
Node 13	Router 3
Node 14	Router 3
Node 15	Router 3
Node 16	Router 4
Node 17	Router 4
Node 18	Router 4
Node 19	Router 4
Node 20	Router 5
Node 21	Router 5
Node 22	Router 5
Node 23	Router 5
Node 24	Router 6
Node 25	Router 6
Node 26	Router 6
Node 27	Router 6
Node 28	Router 7
Node 29	Router 7
Node 30	Router 7
Node 31	Router 7
Node 32	Router 8
Node 33	Router 8
Node 34	Router 8
Node 35	Router 8
Node 36	Router 9
Node 37	Router 9
Node 38	Router 9
Node 39	Router 9
Node 40	Router 10
Node 41	Router 10
Node 42	Router 10
Node 43	Router 10
Node 44	Router 11
Node 45	Router 11
Node 46	Router 11
Node 47	Router 11
Node 48	Router 12
Node 49	Router 12
Node 50	Router 12
Node 51	Router 12
Node 52	Router 13
Node 53	Router 13
Node 54	Router 13
Node 55	Router 13
Node 56	Router 14
Node 57	Router 14
Node 58	Router 14
Node 59	Router 14
Node 60	Router 15
Node 61	Router 15
Node 62	Router 15
Node 63	Router 15
Node 64	Router 16
Node 65	Router 16
Node 66	Router 16
Node 67	Router 16
Node 68	Router 17
Node 69	Router 17
Node 70	Router 17
Node 71	Router 17
Node 72	Router 18
Node 73	Router 18
Node 74	Router 18
Node 75	Router 18
Node 76	Router 19
Node 77	Router 19
Node 78	Router 19
Node 79	Router 19
Node 80	Router 20
Node 81	Router 20
Node 82	Router 20
Node 83	Router 20
Node 84	Router 21
Node 85	Router 21
Node 86	Router 21
Node 87	Router 21
Node 88	Router 22
Node 89	Router 22
Node 90	Router 22
Node 91	Router 22
Node 92	Router 23
Node 93	Router 23
Node 94	Router 23
Node 95	Router 23
Node 96	Router 24
Node 97	Router 24
Node 98	Router 24
Node 99	Router 24
Node 100	Router 25
Node 101	Router 25
Node 102	Router 25
Node 103	Router 25
Node 104	Router 26
Node 105	Router 26
Node 106	Router 26
Node 107	Router 26
Node 108	Router 27
Node 109	Router 27
Node 110	Router 27
Node 111	Router 27
Node 112	Router 28
Node 113	Router 28
Node 114	Router 28
Node 115	Router 28
Node 116	Router 29
Node 117	Router 29
Node 118	Router 29
Node 119	Router 29
Node 120	Router 30
Node 121	Router 30
Node 122	Router 30
Node 123	Router 30
Node 124	Router 31
Node 125	Router 31
Node 126	Router 31
Node 127	Router 31
Node 128	Router 32
Node 129	Router 32
Node 130	Router 32
Node 131	Router 32
Node 132	Router 33
Node 133	Router 33
Node 134	Router 33
Node 135	Router 33
Node 136	Router 34
Node 137	Router 34
Node 138	Router 34
Node 139	Router 34
Node 140	Router 35
Node 141	Router 35
Node 142	Router 35
Node 143	Router 35
Node 144	Router 36
Node 145	Router 36
Node 146	Router 36
Node 147	Router 36
Node 148	Router 37
Node 149	Router 37
Node 150	Router 37
Node 151	Router 37
Node 152	Router 38
Node 153	Router 38
Node 154	Router 38
Node 155	Router 38
Node 156	Router 39
Node 157	Router 39
Node 158	Router 39
Node 159	Router 39
Node 160	Router 40
Node 161	Router 40
Node 162	Router 40
Node 163	Router 40
Node 164	Router 41
Node 165	Router 41
Node 166	Router 41
Node 167	Router 41

****************router to node listing*************
Router 0
	 Node 0 lat 1
	 Node 1 lat 1
	 Node 2 lat 1
	 Node 3 lat 1
Router 1
	 Node 4 lat 1
	 Node 5 lat 1
	 Node 6 lat 1
	 Node 7 lat 1
Router 2
	 Node 8 lat 1
	 Node 9 lat 1
	 Node 10 lat 1
	 Node 11 lat 1
Router 3
	 Node 12 lat 1
	 Node 13 lat 1
	 Node 14 lat 1
	 Node 15 lat 1
Router 4
	 Node 16 lat 1
	 Node 17 lat 1
	 Node 18 lat 1
	 Node 19 lat 1
Router 5
	 Node 20 lat 1
	 Node 21 lat 1
	 Node 22 lat 1
	 Node 23 lat 1
Router 6
	 Node 24 lat 1
	 Node 25 lat 1
	 Node 26 lat 1
	 Node 27 lat 1
Router 7
	 Node 28 lat 1
	 Node 29 lat 1
	 Node 30 lat 1
	 Node 31 lat 1
Router 8
	 Node 32 lat 1
	 Node 33 lat 1
	 Node 34 lat 1
	 Node 35 lat 1
Router 9
	 Node 36 lat 1
	 Node 37 lat 1
	 Node 38 lat 1
	 Node 39 lat 1
Router 10
	 Node 40 lat 1
	 Node 41 lat 1
	 Node 42 lat 1
	 Node 43 lat 1
Router 11
	 Node 44 lat 1
	 Node 45 lat 1
	 Node 46 lat 1
	 Node 47 lat 1
Router 12
	 Node 48 lat 1
	 Node 49 lat 1
	 Node 50 lat 1
	 Node 51 lat 1
Router 13
	 Node 52 lat 1
	 Node 53 lat 1
	 Node 54 lat 1
	 Node 55 lat 1
Router 14
	 Node 56 lat 1
	 Node 57 lat 1
	 Node 58 lat 1
	 Node 59 lat 1
Router 15
	 Node 60 lat 1
	 Node 61 lat 1
	 Node 62 lat 1
	 Node 63 lat 1
Router 16
	 Node 64 lat 1
	 Node 65 lat 1
	 Node 66 lat 1
	 Node 67 lat 1
Router 17
	 Node 68 lat 1
	 Node 69 lat 1
	 Node 70 lat 1
	 Node 71 lat 1
Router 18
	 Node 72 lat 1
	 Node 73 lat 1
	 Node 74 lat 1
	 Node 75 lat 1
Router 19
	 Node 76 lat 1
	 Node 77 lat 1
	 Node 78 lat 1
	 Node 79 lat 1
Router 20
	 Node 80 lat 1
	 Node 81 lat 1
	 Node 82 lat 1
	 Node 83 lat 1
Router 21
	 Node 84 lat 1
	 Node 85 lat 1
	 Node 86 lat 1
	 Node 87 lat 1
Router 22
	 Node 88 lat 1
	 Node 89 lat 1
	 Node 90 lat 1
	 Node 91 lat 1
Router 23
	 Node 92 lat 1
	 Node 93 lat 1
	 Node 94 lat 1
	 Node 95 lat 1
Router 24
	 Node 96 lat 1
	 Node 97 lat 1
	 Node 98 lat 1
	 Node 99 lat 1
Router 25
	 Node 100 lat 1
	 Node 101 lat 1
	 Node 102 lat 1
	 Node 103 lat 1
Router 26
	 Node 104 lat 1
	 Node 105 lat 1
	 Node 106 lat 1
	 Node 107 lat 1
Router 27
	 Node 108 lat 1
	 Node 109 lat 1
	 Node 110 lat 1
	 Node 111 lat 1
Router 28
	 Node 112 lat 1
	 Node 113 lat 1
	 Node 114 lat 1
	 Node 115 lat 1
Router 29
	 Node 116 lat 1
	 Node 117 lat 1
	 Node 118 lat 1
	 Node 119 lat 1
Router 30
	 Node 120 lat 1
	 Node 121 lat 1
	 Node 122 lat 1
	 Node 123 lat 1
Router 31
	 Node 124 lat 1
	 Node 125 lat 1
	 Node 126 lat 1
	 Node 127 lat 1
Router 32
	 Node 128 lat 1
	 Node 129 lat 1
	 Node 130 lat 1
	 Node 131 lat 1
Router 33
	 Node 132 lat 1
	 Node 133 lat 1
	 Node 134 lat 1
	 Node 135 lat 1
Router 34
	 Node 136 lat 1
	 Node 137 lat 1
	 Node 138 lat 1
	 Node 139 lat 1
Router 35
	 Node 140 lat 1
	 Node 141 lat 1
	 Node 142 lat 1
	 Node 143 lat 1
Router 36
	 Node 144 lat 1
	 Node 145 lat 1
	 Node 146 lat 1
	 Node 147 lat 1
Router 37
	 Node 148 lat 1
	 Node 149 lat 1
	 Node 150 lat 1
	 Node 151 lat 1
Router 38
	 Node 152 lat 1
	 Node 153 lat 1
	 Node 154 lat 1
	 Node 155 lat 1
Router 39
	 Node 156 lat 1
	 Node 157 lat 1
	 Node 158 lat 1
	 Node 159 lat 1
Router 40
	 Node 160 lat 1
	 Node 161 lat 1
	 Node 162 lat 1
	 Node 163 lat 1
Router 41
	 Node 164 lat 1
	 Node 165 lat 1
	 Node 166 lat 1
	 Node 167 lat 1

*****************router to router listing************
Router 0
	 Router 1 lat 1
	 Router 7 lat 1
Router 1
	 Router 0 lat 1
	 Router 2 lat 1
	 Router 8 lat 1
Router 2
	 Router 1 lat 1
	 Router 3 lat 1
	 Router 9 lat 1
Router 3
	 Router 2 lat 1
	 Router 4 lat 1
	 Router 10 lat 1
Router 4
	 Router 3 lat 1
	 Router 5 lat 1
	 Router 11 lat 1
Router 5
	 Router 4 lat 1
	 Router 6 lat 1
	 Router 12 lat 1
Router 6
	 Router 5 lat 1
	 Router 13 lat 1
Router 7
	 Router 0 lat 1
	 Router 8 lat 1
	 Router 14 lat 1
Router 8
	 Router 1 lat 1
	 Router 7 lat 1
	 Router 9 lat 1
	 Router 15 lat 1
Router 9
	 Router 2 lat 1
	 Router 8 lat 1
	 Router 10 lat 1
	 Router 16 lat 1
Router 10
	 Router 3 lat 1
	 Router 9 lat 1
	 Router 11 lat 1
	 Router 17 lat 1
Router 11
	 Router 4 lat 1
	 Router 10 lat 1
	 Router 12 lat 1
	 Router 18 lat 1
Router 12
	 Router 5 lat 1
	 Router 11 lat 1
	 Router 13 lat 1
	 Router 19 lat 1
Router 13
	 Router 6 lat 1
	 Router 12 lat 1
	 Router 20 lat 1
Router 14
	 Router 7 lat 1
	 Router 15 lat 1
	 Router 21 lat 1
Router 15
	 Router 8 lat 1
	 Router 14 lat 1
	 Router 16 lat 1
	 Router 22 lat 1
Router 16
	 Router 9 lat 1
	 Router 15 lat 1
	 Router 17 lat 1
	 Router 23 lat 1
Router 17
	 Router 10 lat 1
	 Router 16 lat 1
	 Router 18 lat 1
	 Router 24 lat 1
Router 18
	 Router 11 lat 1
	 Router 17 lat 1
	 Router 19 lat 1
	 Router 25 lat 1
Router 19
	 Router 12 lat 1
	 Router 18 lat 1
	 Router 20 lat 1
	 Router 26 lat 1
Router 20
	 Router 13 lat 1
	 Router 19 lat 1
	 Router 27 lat 1
Router 21
	 Router 14 lat 1
	 Router 22 lat 1
	 Router 28 lat 1
Router 22
	 Router 15 lat 1
	 Router 21 lat 1
	 Router 23 lat 1
	 Router 29 lat 1
Router 23
	 Router 16 lat 1
	 Router 22 lat 1
	 Router 24 lat 1
	 Router 30 lat 1
Router 24
	 Router 17 lat 1
	 Router 23 lat 1
	 Router 25 lat 1
	 Router 31 lat 1
Router 25
	 Router 18 lat 1
	 Router 24 lat 1
	 Router 26 lat 1
	 Router 32 lat 1
Router 26
	 Router 19 lat 1
	 Router 25 lat 1
	 Router 27 lat 1
	 Router 33 lat 1
Router 27
	 Router 20 lat 1
	 Router 26 lat 1
	 Router 34 lat 1
Router 28
	 Router 21 lat 1
	 Router 29 lat 1
	 Router 35 lat 1
Router 29
	 Router 22 lat 1
	 Router 28 lat 1
	 Router 30 lat 1
	 Router 36 lat 1
Router 30
	 Router 23 lat 1
	 Router 29 lat 1
	 Router 31 lat 1
	 Router 37 lat 1
Router 31
	 Router 24 lat 1
	 Router 30 lat 1
	 Router 32 lat 1
	 Router 38 lat 1
Router 32
	 Router 25 lat 1
	 Router 31 lat 1
	 Router 33 lat 1
	 Router 39 lat 1
Router 33
	 Router 26 lat 1
	 Router 32 lat 1
	 Router 34 lat 1
	 Router 40 lat 1
Router 34
	 Router 27 lat 1
	 Router 33 lat 1
	 Router 41 lat 1
Router 35
	 Router 28 lat 1
	 Router 36 lat 1
Router 36
	 Router 29 lat 1
	 Router 35 lat 1
	 Router 37 lat 1
Router 37
	 Router 30 lat 1
	 Router 36 lat 1
	 Router 38 lat 1
Router 38
	 Router 31 lat 1
	 Router 37 lat 1
	 Router 39 lat 1
Router 39
	 Router 32 lat 1
	 Router 38 lat 1
	 Router 40 lat 1
Router 40
	 Router 33 lat 1
	 Router 39 lat 1
	 Router 41 lat 1
Router 41
	 Router 34 lat 1
	 Router 40 lat 1
==========================Node to Router =====================
router 0 radix 6
	 connected to node 0 at outport 0 lat 1
	 connected to node 1 at outport 1 lat 1
	 connected to node 2 at outport 2 lat 1
	 connected to node 3 at outport 3 lat 1
router 1 radix 7
	 connected to node 4 at outport 0 lat 1
	 connected to node 5 at outport 1 lat 1
	 connected to node 6 at outport 2 lat 1
	 connected to node 7 at outport 3 lat 1
router 2 radix 7
	 connected to node 8 at outport 0 lat 1
	 connected to node 9 at outport 1 lat 1
	 connected to node 10 at outport 2 lat 1
	 connected to node 11 at outport 3 lat 1
router 3 radix 7
	 connected to node 12 at outport 0 lat 1
	 connected to node 13 at outport 1 lat 1
	 connected to node 14 at outport 2 lat 1
	 connected to node 15 at outport 3 lat 1
router 4 radix 7
	 connected to node 16 at outport 0 lat 1
	 connected to node 17 at outport 1 lat 1
	 connected to node 18 at outport 2 lat 1
	 connected to node 19 at outport 3 lat 1
router 5 radix 7
	 connected to node 20 at outport 0 lat 1
	 connected to node 21 at outport 1 lat 1
	 connected to node 22 at outport 2 lat 1
	 connected to node 23 at outport 3 lat 1
router 6 radix 6
	 connected to node 24 at outport 0 lat 1
	 connected to node 25 at outport 1 lat 1
	 connected to node 26 at outport 2 lat 1
	 connected to node 27 at outport 3 lat 1
router 7 radix 7
	 connected to node 28 at outport 0 lat 1
	 connected to node 29 at outport 1 lat 1
	 connected to node 30 at outport 2 lat 1
	 connected to node 31 at outport 3 lat 1
router 8 radix 8
	 connected to node 32 at outport 0 lat 1
	 connected to node 33 at outport 1 lat 1
	 connected to node 34 at outport 2 lat 1
	 connected to node 35 at outport 3 lat 1
router 9 radix 8
	 connected to node 36 at outport 0 lat 1
	 connected to node 37 at outport 1 lat 1
	 connected to node 38 at outport 2 lat 1
	 connected to node 39 at outport 3 lat 1
router 10 radix 8
	 connected to node 40 at outport 0 lat 1
	 connected to node 41 at outport 1 lat 1
	 connected to node 42 at outport 2 lat 1
	 connected to node 43 at outport 3 lat 1
router 11 radix 8
	 connected to node 44 at outport 0 lat 1
	 connected to node 45 at outport 1 lat 1
	 connected to node 46 at outport 2 lat 1
	 connected to node 47 at outport 3 lat 1
router 12 radix 8
	 connected to node 48 at outport 0 lat 1
	 connected to node 49 at outport 1 lat 1
	 connected to node 50 at outport 2 lat 1
	 connected to node 51 at outport 3 lat 1
router 13 radix 7
	 connected to node 52 at outport 0 lat 1
	 connected to node 53 at outport 1 lat 1
	 connected to node 54 at outport 2 lat 1
	 connected to node 55 at outport 3 lat 1
router 14 radix 7
	 connected to node 56 at outport 0 lat 1
	 connected to node 57 at outport 1 lat 1
	 connected to node 58 at outport 2 lat 1
	 connected to node 59 at outport 3 lat 1
router 15 radix 8
	 connected to node 60 at outport 0 lat 1
	 connected to node 61 at outport 1 lat 1
	 connected to node 62 at outport 2 lat 1
	 connected to node 63 at outport 3 lat 1
router 16 radix 8
	 connected to node 64 at outport 0 lat 1
	 connected to node 65 at outport 1 lat 1
	 connected to node 66 at outport 2 lat 1
	 connected to node 67 at outport 3 lat 1
router 17 radix 8
	 connected to node 68 at outport 0 lat 1
	 connected to node 69 at outport 1 lat 1
	 connected to node 70 at outport 2 lat 1
	 connected to node 71 at outport 3 lat 1
router 18 radix 8
	 connected to node 72 at outport 0 lat 1
	 connected to node 73 at outport 1 lat 1
	 connected to node 74 at outport 2 lat 1
	 connected to node 75 at outport 3 lat 1
router 19 radix 8
	 connected to node 76 at outport 0 lat 1
	 connected to node 77 at outport 1 lat 1
	 connected to node 78 at outport 2 lat 1
	 connected to node 79 at outport 3 lat 1
router 20 radix 7
	 connected to node 80 at outport 0 lat 1
	 connected to node 81 at outport 1 lat 1
	 connected to node 82 at outport 2 lat 1
	 connected to node 83 at outport 3 lat 1
router 21 radix 7
	 connected to node 84 at outport 0 lat 1
	 connected to node 85 at outport 1 lat 1
	 connected to node 86 at outport 2 lat 1
	 connected to node 87 at outport 3 lat 1
router 22 radix 8
	 connected to node 88 at outport 0 lat 1
	 connected to node 89 at outport 1 lat 1
	 connected to node 90 at outport 2 lat 1
	 connected to node 91 at outport 3 lat 1
router 23 radix 8
	 connected to node 92 at outport 0 lat 1
	 connected to node 93 at outport 1 lat 1
	 connected to node 94 at outport 2 lat 1
	 connected to node 95 at outport 3 lat 1
router 24 radix 8
	 connected to node 96 at outport 0 lat 1
	 connected to node 97 at outport 1 lat 1
	 connected to node 98 at outport 2 lat 1
	 connected to node 99 at outport 3 lat 1
router 25 radix 8
	 connected to node 100 at outport 0 lat 1
	 connected to node 101 at outport 1 lat 1
	 connected to node 102 at outport 2 lat 1
	 connected to node 103 at outport 3 lat 1
router 26 radix 8
	 connected to node 104 at outport 0 lat 1
	 connected to node 105 at outport 1 lat 1
	 connected to node 106 at outport 2 lat 1
	 connected to node 107 at outport 3 lat 1
router 27 radix 7
	 connected to node 108 at outport 0 lat 1
	 connected to node 109 at outport 1 lat 1
	 connected to node 110 at outport 2 lat 1
	 connected to node 111 at outport 3 lat 1
router 28 radix 7
	 connected to node 112 at outport 0 lat 1
	 connected to node 113 at outport 1 lat 1
	 connected to node 114 at outport 2 lat 1
	 connected to node 115 at outport 3 lat 1
router 29 radix 8
	 connected to node 116 at outport 0 lat 1
	 connected to node 117 at outport 1 lat 1
	 connected to node 118 at outport 2 lat 1
	 connected to node 119 at outport 3 lat 1
router 30 radix 8
	 connected to node 120 at outport 0 lat 1
	 connected to node 121 at outport 1 lat 1
	 connected to node 122 at outport 2 lat 1
	 connected to node 123 at outport 3 lat 1
router 31 radix 8
	 connected to node 124 at outport 0 lat 1
	 connected to node 125 at outport 1 lat 1
	 connected to node 126 at outport 2 lat 1
	 connected to node 127 at outport 3 lat 1
router 32 radix 8
	 connected to node 128 at outport 0 lat 1
	 connected to node 129 at outport 1 lat 1
	 connected to node 130 at outport 2 lat 1
	 connected to node 131 at outport 3 lat 1
router 33 radix 8
	 connected to node 132 at outport 0 lat 1
	 connected to node 133 at outport 1 lat 1
	 connected to node 134 at outport 2 lat 1
	 connected to node 135 at outport 3 lat 1
router 34 radix 7
	 connected to node 136 at outport 0 lat 1
	 connected to node 137 at outport 1 lat 1
	 connected to node 138 at outport 2 lat 1
	 connected to node 139 at outport 3 lat 1
router 35 radix 6
	 connected to node 140 at outport 0 lat 1
	 connected to node 141 at outport 1 lat 1
	 connected to node 142 at outport 2 lat 1
	 connected to node 143 at outport 3 lat 1
router 36 radix 7
	 connected to node 144 at outport 0 lat 1
	 connected to node 145 at outport 1 lat 1
	 connected to node 146 at outport 2 lat 1
	 connected to node 147 at outport 3 lat 1
router 37 radix 7
	 connected to node 148 at outport 0 lat 1
	 connected to node 149 at outport 1 lat 1
	 connected to node 150 at outport 2 lat 1
	 connected to node 151 at outport 3 lat 1
router 38 radix 7
	 connected to node 152 at outport 0 lat 1
	 connected to node 153 at outport 1 lat 1
	 connected to node 154 at outport 2 lat 1
	 connected to node 155 at outport 3 lat 1
router 39 radix 7
	 connected to node 156 at outport 0 lat 1
	 connected to node 157 at outport 1 lat 1
	 connected to node 158 at outport 2 lat 1
	 connected to node 159 at outport 3 lat 1
router 40 radix 7
	 connected to node 160 at outport 0 lat 1
	 connected to node 161 at outport 1 lat 1
	 connected to node 162 at outport 2 lat 1
	 connected to node 163 at outport 3 lat 1
router 41 radix 6
	 connected to node 164 at outport 0 lat 1
	 connected to node 165 at outport 1 lat 1
	 connected to node 166 at outport 2 lat 1
	 connected to node 167 at outport 3 lat 1
==========================Router to Router =====================
router 0
	 connected to router 1 using link 0 at outport 4 lat 1
	 connected to router 7 using link 1 at outport 5 lat 1
router 1
	 connected to router 0 using link 2 at outport 4 lat 1
	 connected to router 2 using link 3 at outport 5 lat 1
	 connected to router 8 using link 4 at outport 6 lat 1
router 2
	 connected to router 1 using link 5 at outport 4 lat 1
	 connected to router 3 using link 6 at outport 5 lat 1
	 connected to router 9 using link 7 at outport 6 lat 1
router 3
	 connected to router 2 using link 8 at outport 4 lat 1
	 connected to router 4 using link 9 at outport 5 lat 1
	 connected to router 10 using link 10 at outport 6 lat 1
router 4
	 connected to router 3 using link 11 at outport 4 lat 1
	 connected to router 5 using link 12 at outport 5 lat 1
	 connected to router 11 using link 13 at outport 6 lat 1
router 5
	 connected to router 4 using link 14 at outport 4 lat 1
	 connected to router 6 using link 15 at outport 5 lat 1
	 connected to router 12 using link 16 at outport 6 lat 1
router 6
	 connected to router 5 using link 17 at outport 4 lat 1
	 connected to router 13 using link 18 at outport 5 lat 1
router 7
	 connected to router 0 using link 19 at outport 4 lat 1
	 connected to router 8 using link 20 at outport 5 lat 1
	 connected to router 14 using link 21 at outport 6 lat 1
router 8
	 connected to router 1 using link 22 at outport 4 lat 1
	 connected to router 7 using link 23 at outport 5 lat 1
	 connected to router 9 using link 24 at outport 6 lat 1
	 connected to router 15 using link 25 at outport 7 lat 1
router 9
	 connected to router 2 using link 26 at outport 4 lat 1
	 connected to router 8 using link 27 at outport 5 lat 1
	 connected to router 10 using link 28 at outport 6 lat 1
	 connected to router 16 using link 29 at outport 7 lat 1
router 10
	 connected to router 3 using link 30 at outport 4 lat 1
	 connected to router 9 using link 31 at outport 5 lat 1
	 connected to router 11 using link 32 at outport 6 lat 1
	 connected to router 17 using link 33 at outport 7 lat 1
router 11
	 connected to router 4 using link 34 at outport 4 lat 1
	 connected to router 10 using link 35 at outport 5 lat 1
	 connected to router 12 using link 36 at outport 6 lat 1
	 connected to router 18 using link 37 at outport 7 lat 1
router 12
	 connected to router 5 using link 38 at outport 4 lat 1
	 connected to router 11 using link 39 at outport 5 lat 1
	 connected to router 13 using link 40 at outport 6 lat 1
	 connected to router 19 using link 41 at outport 7 lat 1
router 13
	 connected to router 6 using link 42 at outport 4 lat 1
	 connected to router 12 using link 43 at outport 5 lat 1
	 connected to router 20 using link 44 at outport 6 lat 1
router 14
	 connected to router 7 using link 45 at outport 4 lat 1
	 connected to router 15 using link 46 at outport 5 lat 1
	 connected to router 21 using link 47 at outport 6 lat 1
router 15
	 connected to router 8 using link 48 at outport 4 lat 1
	 connected to router 14 using link 49 at outport 5 lat 1
	 connected to router 16 using link 50 at outport 6 lat 1
	 connected to router 22 using link 51 at outport 7 lat 1
router 16
	 connected to router 9 using link 52 at outport 4 lat 1
	 connected to router 15 using link 53 at outport 5 lat 1
	 connected to router 17 using link 54 at outport 6 lat 1
	 connected to router 23 using link 55 at outport 7 lat 1
router 17
	 connected to router 10 using link 56 at outport 4 lat 1
	 connected to router 16 using link 57 at outport 5 lat 1
	 connected to router 18 using link 58 at outport 6 lat 1
	 connected to router 24 using link 59 at outport 7 lat 1
router 18
	 connected to router 11 using link 60 at outport 4 lat 1
	 connected to router 17 using link 61 at outport 5 lat 1
	 connected to router 19 using link 62 at outport 6 lat 1
	 connected to router 25 using link 63 at outport 7 lat 1
router 19
	 connected to router 12 using link 64 at outport 4 lat 1
	 connected to router 18 using link 65 at outport 5 lat 1
	 connected to router 20 using link 66 at outport 6 lat 1
	 connected to router 26 using link 67 at outport 7 lat 1
router 20
	 connected to router 13 using link 68 at outport 4 lat 1
	 connected to router 19 using link 69 at outport 5 lat 1
	 connected to router 27 using link 70 at outport 6 lat 1
router 21
	 connected to router 14 using link 71 at outport 4 lat 1
	 connected to router 22 using link 72 at outport 5 lat 1
	 connected to router 28 using link 73 at outport 6 lat 1
router 22
	 connected to router 15 using link 74 at outport 4 lat 1
	 connected to router 21 using link 75 at outport 5 lat 1
	 connected to router 23 using link 76 at outport 6 lat 1
	 connected to router 29 using link 77 at outport 7 lat 1
router 23
	 connected to router 16 using link 78 at outport 4 lat 1
	 connected to router 22 using link 79 at outport 5 lat 1
	 connected to router 24 using link 80 at outport 6 lat 1
	 connected to router 30 using link 81 at outport 7 lat 1
router 24
	 connected to router 17 using link 82 at outport 4 lat 1
	 connected to router 23 using link 83 at outport 5 lat 1
	 connected to router 25 using link 84 at outport 6 lat 1
	 connected to router 31 using link 85 at outport 7 lat 1
router 25
	 connected to router 18 using link 86 at outport 4 lat 1
	 connected to router 24 using link 87 at outport 5 lat 1
	 connected to router 26 using link 88 at outport 6 lat 1
	 connected to router 32 using link 89 at outport 7 lat 1
router 26
	 connected to router 19 using link 90 at outport 4 lat 1
	 connected to router 25 using link 91 at outport 5 lat 1
	 connected to router 27 using link 92 at outport 6 lat 1
	 connected to router 33 using link 93 at outport 7 lat 1
router 27
	 connected to router 20 using link 94 at outport 4 lat 1
	 connected to router 26 using link 95 at outport 5 lat 1
	 connected to router 34 using link 96 at outport 6 lat 1
router 28
	 connected to router 21 using link 97 at outport 4 lat 1
	 connected to router 29 using link 98 at outport 5 lat 1
	 connected to router 35 using link 99 at outport 6 lat 1
router 29
	 connected to router 22 using link 100 at outport 4 lat 1
	 connected to router 28 using link 101 at outport 5 lat 1
	 connected to router 30 using link 102 at outport 6 lat 1
	 connected to router 36 using link 103 at outport 7 lat 1
router 30
	 connected to router 23 using link 104 at outport 4 lat 1
	 connected to router 29 using link 105 at outport 5 lat 1
	 connected to router 31 using link 106 at outport 6 lat 1
	 connected to router 37 using link 107 at outport 7 lat 1
router 31
	 connected to router 24 using link 108 at outport 4 lat 1
	 connected to router 30 using link 109 at outport 5 lat 1
	 connected to router 32 using link 110 at outport 6 lat 1
	 connected to router 38 using link 111 at outport 7 lat 1
router 32
	 connected to router 25 using link 112 at outport 4 lat 1
	 connected to router 31 using link 113 at outport 5 lat 1
	 connected to router 33 using link 114 at outport 6 lat 1
	 connected to router 39 using link 115 at outport 7 lat 1
router 33
	 connected to router 26 using link 116 at outport 4 lat 1
	 connected to router 32 using link 117 at outport 5 lat 1
	 connected to router 34 using link 118 at outport 6 lat 1
	 connected to router 40 using link 119 at outport 7 lat 1
router 34
	 connected to router 27 using link 120 at outport 4 lat 1
	 connected to router 33 using link 121 at outport 5 lat 1
	 connected to router 41 using link 122 at outport 6 lat 1
router 35
	 connected to router 28 using link 123 at outport 4 lat 1
	 connected to router 36 using link 124 at outport 5 lat 1
router 36
	 connected to router 29 using link 125 at outport 4 lat 1
	 connected to router 35 using link 126 at outport 5 lat 1
	 connected to router 37 using link 127 at outport 6 lat 1
router 37
	 connected to router 30 using link 128 at outport 4 lat 1
	 connected to router 36 using link 129 at outport 5 lat 1
	 connected to router 38 using link 130 at outport 6 lat 1
router 38
	 connected to router 31 using link 131 at outport 4 lat 1
	 connected to router 37 using link 132 at outport 5 lat 1
	 connected to router 39 using link 133 at outport 6 lat 1
router 39
	 connected to router 32 using link 134 at outport 4 lat 1
	 connected to router 38 using link 135 at outport 5 lat 1
	 connected to router 40 using link 136 at outport 6 lat 1
router 40
	 connected to router 33 using link 137 at outport 4 lat 1
	 connected to router 39 using link 138 at outport 5 lat 1
	 connected to router 41 using link 139 at outport 6 lat 1
router 41
	 connected to router 34 using link 140 at outport 4 lat 1
	 connected to router 40 using link 141 at outport 5 lat 1
========================== Routing table  =====================
========================Network File Parsed=================
******************node listing**********************
Node 0	Router 0
Node 1	Router 0
Node 2	Router 0
Node 3	Router 0
Node 4	Router 1
Node 5	Router 1
Node 6	Router 1
Node 7	Router 1
Node 8	Router 2
Node 9	Router 2
Node 10	Router 2
Node 11	Router 2
Node 12	Router 3
Node 13	Router 3
Node 14	Router 3
Node 15	Router 3
Node 16	Router 4
Node 17	Router 4
Node 18	Router 4
Node 19	Router 4
Node 20	Router 5
Node 21	Router 5
Node 22	Router 5
Node 23	Router 5
Node 24	Router 6
Node 25	Router 6
Node 26	Router 6
Node 27	Router 6
Node 28	Router 7
Node 29	Router 7
Node 30	Router 7
Node 31	Router 7
Node 32	Router 8
Node 33	Router 8
Node 34	Router 8
Node 35	Router 8
Node 36	Router 9
Node 37	Router 9
Node 38	Router 9
Node 39	Router 9
Node 40	Router 10
Node 41	Router 10
Node 42	Router 10
Node 43	Router 10
Node 44	Router 11
Node 45	Router 11
Node 46	Router 11
Node 47	Router 11
Node 48	Router 12
Node 49	Router 12
Node 50	Router 12
Node 51	Router 12
Node 52	Router 13
Node 53	Router 13
Node 54	Router 13
Node 55	Router 13
Node 56	Router 14
Node 57	Router 14
Node 58	Router 14
Node 59	Router 14
Node 60	Router 15
Node 61	Router 15
Node 62	Router 15
Node 63	Router 15
Node 64	Router 16
Node 65	Router 16
Node 66	Router 16
Node 67	Router 16
Node 68	Router 17
Node 69	Router 17
Node 70	Router 17
Node 71	Router 17
Node 72	Router 18
Node 73	Router 18
Node 74	Router 18
Node 75	Router 18
Node 76	Router 19
Node 77	Router 19
Node 78	Router 19
Node 79	Router 19
Node 80	Router 20
Node 81	Router 20
Node 82	Router 20
Node 83	Router 20
Node 84	Router 21
Node 85	Router 21
Node 86	Router 21
Node 87	Router 21
Node 88	Router 22
Node 89	Router 22
Node 90	Router 22
Node 91	Router 22
Node 92	Router 23
Node 93	Router 23
Node 94	Router 23
Node 95	Router 23
Node 96	Router 24
Node 97	Router 24
Node 98	Router 24
Node 99	Router 24
Node 100	Router 25
Node 101	Router 25
Node 102	Router 25
Node 103	Router 25
Node 104	Router 26
Node 105	Router 26
Node 106	Router 26
Node 107	Router 26
Node 108	Router 27
Node 109	Router 27
Node 110	Router 27
Node 111	Router 27
Node 112	Router 28
Node 113	Router 28
Node 114	Router 28
Node 115	Router 28
Node 116	Router 29
Node 117	Router 29
Node 118	Router 29
Node 119	Router 29
Node 120	Router 30
Node 121	Router 30
Node 122	Router 30
Node 123	Router 30
Node 124	Router 31
Node 125	Router 31
Node 126	Router 31
Node 127	Router 31
Node 128	Router 32
Node 129	Router 32
Node 130	Router 32
Node 131	Router 32
Node 132	Router 33
Node 133	Router 33
Node 134	Router 33
Node 135	Router 33
Node 136	Router 34
Node 137	Router 34
Node 138	Router 34
Node 139	Router 34
Node 140	Router 35
Node 141	Router 35
Node 142	Router 35
Node 143	Router 35
Node 144	Router 36
Node 145	Router 36
Node 146	Router 36
Node 147	Router 36
Node 148	Router 37
Node 149	Router 37
Node 150	Router 37
Node 151	Router 37
Node 152	Router 38
Node 153	Router 38
Node 154	Router 38
Node 155	Router 38
Node 156	Router 39
Node 157	Router 39
Node 158	Router 39
Node 159	Router 39
Node 160	Router 40
Node 161	Router 40
Node 162	Router 40
Node 163	Router 40
Node 164	Router 41
Node 165	Router 41
Node 166	Router 41
Node 167	Router 41

****************router to node listing*************
Router 0
	 Node 0 lat 1
	 Node 1 lat 1
	 Node 2 lat 1
	 Node 3 lat 1
Router 1
	 Node 4 lat 1
	 Node 5 lat 1
	 Node 6 lat 1
	 Node 7 lat 1
Router 2
	 Node 8 lat 1
	 Node 9 lat 1
	 Node 10 lat 1
	 Node 11 lat 1
Router 3
	 Node 12 lat 1
	 Node 13 lat 1
	 Node 14 lat 1
	 Node 15 lat 1
Router 4
	 Node 16 lat 1
	 Node 17 lat 1
	 Node 18 lat 1
	 Node 19 lat 1
Router 5
	 Node 20 lat 1
	 Node 21 lat 1
	 Node 22 lat 1
	 Node 23 lat 1
Router 6
	 Node 24 lat 1
	 Node 25 lat 1
	 Node 26 lat 1
	 Node 27 lat 1
Router 7
	 Node 28 lat 1
	 Node 29 lat 1
	 Node 30 lat 1
	 Node 31 lat 1
Router 8
	 Node 32 lat 1
	 Node 33 lat 1
	 Node 34 lat 1
	 Node 35 lat 1
Router 9
	 Node 36 lat 1
	 Node 37 lat 1
	 Node 38 lat 1
	 Node 39 lat 1
Router 10
	 Node 40 lat 1
	 Node 41 lat 1
	 Node 42 lat 1
	 Node 43 lat 1
Router 11
	 Node 44 lat 1
	 Node 45 lat 1
	 Node 46 lat 1
	 Node 47 lat 1
Router 12
	 Node 48 lat 1
	 Node 49 lat 1
	 Node 50 lat 1
	 Node 51 lat 1
Router 13
	 Node 52 lat 1
	 Node 53 lat 1
	 Node 54 lat 1
	 Node 55 lat 1
Router 14
	 Node 56 lat 1
	 Node 57 lat 1
	 Node 58 lat 1
	 Node 59 lat 1
Router 15
	 Node 60 lat 1
	 Node 61 lat 1
	 Node 62 lat 1
	 Node 63 lat 1
Router 16
	 Node 64 lat 1
	 Node 65 lat 1
	 Node 66 lat 1
	 Node 67 lat 1
Router 17
	 Node 68 lat 1
	 Node 69 lat 1
	 Node 70 lat 1
	 Node 71 lat 1
Router 18
	 Node 72 lat 1
	 Node 73 lat 1
	 Node 74 lat 1
	 Node 75 lat 1
Router 19
	 Node 76 lat 1
	 Node 77 lat 1
	 Node 78 lat 1
	 Node 79 lat 1
Router 20
	 Node 80 lat 1
	 Node 81 lat 1
	 Node 82 lat 1
	 Node 83 lat 1
Router 21
	 Node 84 lat 1
	 Node 85 lat 1
	 Node 86 lat 1
	 Node 87 lat 1
Router 22
	 Node 88 lat 1
	 Node 89 lat 1
	 Node 90 lat 1
	 Node 91 lat 1
Router 23
	 Node 92 lat 1
	 Node 93 lat 1
	 Node 94 lat 1
	 Node 95 lat 1
Router 24
	 Node 96 lat 1
	 Node 97 lat 1
	 Node 98 lat 1
	 Node 99 lat 1
Router 25
	 Node 100 lat 1
	 Node 101 lat 1
	 Node 102 lat 1
	 Node 103 lat 1
Router 26
	 Node 104 lat 1
	 Node 105 lat 1
	 Node 106 lat 1
	 Node 107 lat 1
Router 27
	 Node 108 lat 1
	 Node 109 lat 1
	 Node 110 lat 1
	 Node 111 lat 1
Router 28
	 Node 112 lat 1
	 Node 113 lat 1
	 Node 114 lat 1
	 Node 115 lat 1
Router 29
	 Node 116 lat 1
	 Node 117 lat 1
	 Node 118 lat 1
	 Node 119 lat 1
Router 30
	 Node 120 lat 1
	 Node 121 lat 1
	 Node 122 lat 1
	 Node 123 lat 1
Router 31
	 Node 124 lat 1
	 Node 125 lat 1
	 Node 126 lat 1
	 Node 127 lat 1
Router 32
	 Node 128 lat 1
	 Node 129 lat 1
	 Node 130 lat 1
	 Node 131 lat 1
Router 33
	 Node 132 lat 1
	 Node 133 lat 1
	 Node 134 lat 1
	 Node 135 lat 1
Router 34
	 Node 136 lat 1
	 Node 137 lat 1
	 Node 138 lat 1
	 Node 139 lat 1
Router 35
	 Node 140 lat 1
	 Node 141 lat 1
	 Node 142 lat 1
	 Node 143 lat 1
Router 36
	 Node 144 lat 1
	 Node 145 lat 1
	 Node 146 lat 1
	 Node 147 lat 1
Router 37
	 Node 148 lat 1
	 Node 149 lat 1
	 Node 150 lat 1
	 Node 151 lat 1
Router 38
	 Node 152 lat 1
	 Node 153 lat 1
	 Node 154 lat 1
	 Node 155 lat 1
Router 39
	 Node 156 lat 1
	 Node 157 lat 1
	 Node 158 lat 1
	 Node 159 lat 1
Router 40
	 Node 160 lat 1
	 Node 161 lat 1
	 Node 162 lat 1
	 Node 163 lat 1
Router 41
	 Node 164 lat 1
	 Node 165 lat 1
	 Node 166 lat 1
	 Node 167 lat 1

*****************router to router listing************
Router 0
	 Router 1 lat 1
	 Router 7 lat 1
Router 1
	 Router 0 lat 1
	 Router 2 lat 1
	 Router 8 lat 1
Router 2
	 Router 1 lat 1
	 Router 3 lat 1
	 Router 9 lat 1
Router 3
	 Router 2 lat 1
	 Router 4 lat 1
	 Router 10 lat 1
Router 4
	 Router 3 lat 1
	 Router 5 lat 1
	 Router 11 lat 1
Router 5
	 Router 4 lat 1
	 Router 6 lat 1
	 Router 12 lat 1
Router 6
	 Router 5 lat 1
	 Router 13 lat 1
Router 7
	 Router 0 lat 1
	 Router 8 lat 1
	 Router 14 lat 1
Router 8
	 Router 1 lat 1
	 Router 7 lat 1
	 Router 9 lat 1
	 Router 15 lat 1
Router 9
	 Router 2 lat 1
	 Router 8 lat 1
	 Router 10 lat 1
	 Router 16 lat 1
Router 10
	 Router 3 lat 1
	 Router 9 lat 1
	 Router 11 lat 1
	 Router 17 lat 1
Router 11
	 Router 4 lat 1
	 Router 10 lat 1
	 Router 12 lat 1
	 Router 18 lat 1
Router 12
	 Router 5 lat 1
	 Router 11 lat 1
	 Router 13 lat 1
	 Router 19 lat 1
Router 13
	 Router 6 lat 1
	 Router 12 lat 1
	 Router 20 lat 1
Router 14
	 Router 7 lat 1
	 Router 15 lat 1
	 Router 21 lat 1
Router 15
	 Router 8 lat 1
	 Router 14 lat 1
	 Router 16 lat 1
	 Router 22 lat 1
Router 16
	 Router 9 lat 1
	 Router 15 lat 1
	 Router 17 lat 1
	 Router 23 lat 1
Router 17
	 Router 10 lat 1
	 Router 16 lat 1
	 Router 18 lat 1
	 Router 24 lat 1
Router 18
	 Router 11 lat 1
	 Router 17 lat 1
	 Router 19 lat 1
	 Router 25 lat 1
Router 19
	 Router 12 lat 1
	 Router 18 lat 1
	 Router 20 lat 1
	 Router 26 lat 1
Router 20
	 Router 13 lat 1
	 Router 19 lat 1
	 Router 27 lat 1
Router 21
	 Router 14 lat 1
	 Router 22 lat 1
	 Router 28 lat 1
Router 22
	 Router 15 lat 1
	 Router 21 lat 1
	 Router 23 lat 1
	 Router 29 lat 1
Router 23
	 Router 16 lat 1
	 Router 22 lat 1
	 Router 24 lat 1
	 Router 30 lat 1
Router 24
	 Router 17 lat 1
	 Router 23 lat 1
	 Router 25 lat 1
	 Router 31 lat 1
Router 25
	 Router 18 lat 1
	 Router 24 lat 1
	 Router 26 lat 1
	 Router 32 lat 1
Router 26
	 Router 19 lat 1
	 Router 25 lat 1
	 Router 27 lat 1
	 Router 33 lat 1
Router 27
	 Router 20 lat 1
	 Router 26 lat 1
	 Router 34 lat 1
Router 28
	 Router 21 lat 1
	 Router 29 lat 1
	 Router 35 lat 1
Router 29
	 Router 22 lat 1
	 Router 28 lat 1
	 Router 30 lat 1
	 Router 36 lat 1
Router 30
	 Router 23 lat 1
	 Router 29 lat 1
	 Router 31 lat 1
	 Router 37 lat 1
Router 31
	 Router 24 lat 1
	 Router 30 lat 1
	 Router 32 lat 1
	 Router 38 lat 1
Router 32
	 Router 25 lat 1
	 Router 31 lat 1
	 Router 33 lat 1
	 Router 39 lat 1
Router 33
	 Router 26 lat 1
	 Router 32 lat 1
	 Router 34 lat 1
	 Router 40 lat 1
Router 34
	 Router 27 lat 1
	 Router 33 lat 1
	 Router 41 lat 1
Router 35
	 Router 28 lat 1
	 Router 36 lat 1
Router 36
	 Router 29 lat 1
	 Router 35 lat 1
	 Router 37 lat 1
Router 37
	 Router 30 lat 1
	 Router 36 lat 1
	 Router 38 lat 1
Router 38
	 Router 31 lat 1
	 Router 37 lat 1
	 Router 39 lat 1
Router 39
	 Router 32 lat 1
	 Router 38 lat 1
	 Router 40 lat 1
Router 40
	 Router 33 lat 1
	 Router 39 lat 1
	 Router 41 lat 1
Router 41
	 Router 34 lat 1
	 Router 40 lat 1
==========================Node to Router =====================
router 0 radix 6
	 connected to node 0 at outport 0 lat 1
	 connected to node 1 at outport 1 lat 1
	 connected to node 2 at outport 2 lat 1
	 connected to node 3 at outport 3 lat 1
router 1 radix 7
	 connected to node 4 at outport 0 lat 1
	 connected to node 5 at outport 1 lat 1
	 connected to node 6 at outport 2 lat 1
	 connected to node 7 at outport 3 lat 1
router 2 radix 7
	 connected to node 8 at outport 0 lat 1
	 connected to node 9 at outport 1 lat 1
	 connected to node 10 at outport 2 lat 1
	 connected to node 11 at outport 3 lat 1
router 3 radix 7
	 connected to node 12 at outport 0 lat 1
	 connected to node 13 at outport 1 lat 1
	 connected to node 14 at outport 2 lat 1
	 connected to node 15 at outport 3 lat 1
router 4 radix 7
	 connected to node 16 at outport 0 lat 1
	 connected to node 17 at outport 1 lat 1
	 connected to node 18 at outport 2 lat 1
	 connected to node 19 at outport 3 lat 1
router 5 radix 7
	 connected to node 20 at outport 0 lat 1
	 connected to node 21 at outport 1 lat 1
	 connected to node 22 at outport 2 lat 1
	 connected to node 23 at outport 3 lat 1
router 6 radix 6
	 connected to node 24 at outport 0 lat 1
	 connected to node 25 at outport 1 lat 1
	 connected to node 26 at outport 2 lat 1
	 connected to node 27 at outport 3 lat 1
router 7 radix 7
	 connected to node 28 at outport 0 lat 1
	 connected to node 29 at outport 1 lat 1
	 connected to node 30 at outport 2 lat 1
	 connected to node 31 at outport 3 lat 1
router 8 radix 8
	 connected to node 32 at outport 0 lat 1
	 connected to node 33 at outport 1 lat 1
	 connected to node 34 at outport 2 lat 1
	 connected to node 35 at outport 3 lat 1
router 9 radix 8
	 connected to node 36 at outport 0 lat 1
	 connected to node 37 at outport 1 lat 1
	 connected to node 38 at outport 2 lat 1
	 connected to node 39 at outport 3 lat 1
router 10 radix 8
	 connected to node 40 at outport 0 lat 1
	 connected to node 41 at outport 1 lat 1
	 connected to node 42 at outport 2 lat 1
	 connected to node 43 at outport 3 lat 1
router 11 radix 8
	 connected to node 44 at outport 0 lat 1
	 connected to node 45 at outport 1 lat 1
	 connected to node 46 at outport 2 lat 1
	 connected to node 47 at outport 3 lat 1
router 12 radix 8
	 connected to node 48 at outport 0 lat 1
	 connected to node 49 at outport 1 lat 1
	 connected to node 50 at outport 2 lat 1
	 connected to node 51 at outport 3 lat 1
router 13 radix 7
	 connected to node 52 at outport 0 lat 1
	 connected to node 53 at outport 1 lat 1
	 connected to node 54 at outport 2 lat 1
	 connected to node 55 at outport 3 lat 1
router 14 radix 7
	 connected to node 56 at outport 0 lat 1
	 connected to node 57 at outport 1 lat 1
	 connected to node 58 at outport 2 lat 1
	 connected to node 59 at outport 3 lat 1
router 15 radix 8
	 connected to node 60 at outport 0 lat 1
	 connected to node 61 at outport 1 lat 1
	 connected to node 62 at outport 2 lat 1
	 connected to node 63 at outport 3 lat 1
router 16 radix 8
	 connected to node 64 at outport 0 lat 1
	 connected to node 65 at outport 1 lat 1
	 connected to node 66 at outport 2 lat 1
	 connected to node 67 at outport 3 lat 1
router 17 radix 8
	 connected to node 68 at outport 0 lat 1
	 connected to node 69 at outport 1 lat 1
	 connected to node 70 at outport 2 lat 1
	 connected to node 71 at outport 3 lat 1
router 18 radix 8
	 connected to node 72 at outport 0 lat 1
	 connected to node 73 at outport 1 lat 1
	 connected to node 74 at outport 2 lat 1
	 connected to node 75 at outport 3 lat 1
router 19 radix 8
	 connected to node 76 at outport 0 lat 1
	 connected to node 77 at outport 1 lat 1
	 connected to node 78 at outport 2 lat 1
	 connected to node 79 at outport 3 lat 1
router 20 radix 7
	 connected to node 80 at outport 0 lat 1
	 connected to node 81 at outport 1 lat 1
	 connected to node 82 at outport 2 lat 1
	 connected to node 83 at outport 3 lat 1
router 21 radix 7
	 connected to node 84 at outport 0 lat 1
	 connected to node 85 at outport 1 lat 1
	 connected to node 86 at outport 2 lat 1
	 connected to node 87 at outport 3 lat 1
router 22 radix 8
	 connected to node 88 at outport 0 lat 1
	 connected to node 89 at outport 1 lat 1
	 connected to node 90 at outport 2 lat 1
	 connected to node 91 at outport 3 lat 1
router 23 radix 8
	 connected to node 92 at outport 0 lat 1
	 connected to node 93 at outport 1 lat 1
	 connected to node 94 at outport 2 lat 1
	 connected to node 95 at outport 3 lat 1
router 24 radix 8
	 connected to node 96 at outport 0 lat 1
	 connected to node 97 at outport 1 lat 1
	 connected to node 98 at outport 2 lat 1
	 connected to node 99 at outport 3 lat 1
router 25 radix 8
	 connected to node 100 at outport 0 lat 1
	 connected to node 101 at outport 1 lat 1
	 connected to node 102 at outport 2 lat 1
	 connected to node 103 at outport 3 lat 1
router 26 radix 8
	 connected to node 104 at outport 0 lat 1
	 connected to node 105 at outport 1 lat 1
	 connected to node 106 at outport 2 lat 1
	 connected to node 107 at outport 3 lat 1
router 27 radix 7
	 connected to node 108 at outport 0 lat 1
	 connected to node 109 at outport 1 lat 1
	 connected to node 110 at outport 2 lat 1
	 connected to node 111 at outport 3 lat 1
router 28 radix 7
	 connected to node 112 at outport 0 lat 1
	 connected to node 113 at outport 1 lat 1
	 connected to node 114 at outport 2 lat 1
	 connected to node 115 at outport 3 lat 1
router 29 radix 8
	 connected to node 116 at outport 0 lat 1
	 connected to node 117 at outport 1 lat 1
	 connected to node 118 at outport 2 lat 1
	 connected to node 119 at outport 3 lat 1
router 30 radix 8
	 connected to node 120 at outport 0 lat 1
	 connected to node 121 at outport 1 lat 1
	 connected to node 122 at outport 2 lat 1
	 connected to node 123 at outport 3 lat 1
router 31 radix 8
	 connected to node 124 at outport 0 lat 1
	 connected to node 125 at outport 1 lat 1
	 connected to node 126 at outport 2 lat 1
	 connected to node 127 at outport 3 lat 1
router 32 radix 8
	 connected to node 128 at outport 0 lat 1
	 connected to node 129 at outport 1 lat 1
	 connected to node 130 at outport 2 lat 1
	 connected to node 131 at outport 3 lat 1
router 33 radix 8
	 connected to node 132 at outport 0 lat 1
	 connected to node 133 at outport 1 lat 1
	 connected to node 134 at outport 2 lat 1
	 connected to node 135 at outport 3 lat 1
router 34 radix 7
	 connected to node 136 at outport 0 lat 1
	 connected to node 137 at outport 1 lat 1
	 connected to node 138 at outport 2 lat 1
	 connected to node 139 at outport 3 lat 1
router 35 radix 6
	 connected to node 140 at outport 0 lat 1
	 connected to node 141 at outport 1 lat 1
	 connected to node 142 at outport 2 lat 1
	 connected to node 143 at outport 3 lat 1
router 36 radix 7
	 connected to node 144 at outport 0 lat 1
	 connected to node 145 at outport 1 lat 1
	 connected to node 146 at outport 2 lat 1
	 connected to node 147 at outport 3 lat 1
router 37 radix 7
	 connected to node 148 at outport 0 lat 1
	 connected to node 149 at outport 1 lat 1
	 connected to node 150 at outport 2 lat 1
	 connected to node 151 at outport 3 lat 1
router 38 radix 7
	 connected to node 152 at outport 0 lat 1
	 connected to node 153 at outport 1 lat 1
	 connected to node 154 at outport 2 lat 1
	 connected to node 155 at outport 3 lat 1
router 39 radix 7
	 connected to node 156 at outport 0 lat 1
	 connected to node 157 at outport 1 lat 1
	 connected to node 158 at outport 2 lat 1
	 connected to node 159 at outport 3 lat 1
router 40 radix 7
	 connected to node 160 at outport 0 lat 1
	 connected to node 161 at outport 1 lat 1
	 connected to node 162 at outport 2 lat 1
	 connected to node 163 at outport 3 lat 1
router 41 radix 6
	 connected to node 164 at outport 0 lat 1
	 connected to node 165 at outport 1 lat 1
	 connected to node 166 at outport 2 lat 1
	 connected to node 167 at outport 3 lat 1
==========================Router to Router =====================
router 0
	 connected to router 1 using link 0 at outport 4 lat 1
	 connected to router 7 using link 1 at outport 5 lat 1
router 1
	 connected to router 0 using link 2 at outport 4 lat 1
	 connected to router 2 using link 3 at outport 5 lat 1
	 connected to router 8 using link 4 at outport 6 lat 1
router 2
	 connected to router 1 using link 5 at outport 4 lat 1
	 connected to router 3 using link 6 at outport 5 lat 1
	 connected to router 9 using link 7 at outport 6 lat 1
router 3
	 connected to router 2 using link 8 at outport 4 lat 1
	 connected to router 4 using link 9 at outport 5 lat 1
	 connected to router 10 using link 10 at outport 6 lat 1
router 4
	 connected to router 3 using link 11 at outport 4 lat 1
	 connected to router 5 using link 12 at outport 5 lat 1
	 connected to router 11 using link 13 at outport 6 lat 1
router 5
	 connected to router 4 using link 14 at outport 4 lat 1
	 connected to router 6 using link 15 at outport 5 lat 1
	 connected to router 12 using link 16 at outport 6 lat 1
router 6
	 connected to router 5 using link 17 at outport 4 lat 1
	 connected to router 13 using link 18 at outport 5 lat 1
router 7
	 connected to router 0 using link 19 at outport 4 lat 1
	 connected to router 8 using link 20 at outport 5 lat 1
	 connected to router 14 using link 21 at outport 6 lat 1
router 8
	 connected to router 1 using link 22 at outport 4 lat 1
	 connected to router 7 using link 23 at outport 5 lat 1
	 connected to router 9 using link 24 at outport 6 lat 1
	 connected to router 15 using link 25 at outport 7 lat 1
router 9
	 connected to router 2 using link 26 at outport 4 lat 1
	 connected to router 8 using link 27 at outport 5 lat 1
	 connected to router 10 using link 28 at outport 6 lat 1
	 connected to router 16 using link 29 at outport 7 lat 1
router 10
	 connected to router 3 using link 30 at outport 4 lat 1
	 connected to router 9 using link 31 at outport 5 lat 1
	 connected to router 11 using link 32 at outport 6 lat 1
	 connected to router 17 using link 33 at outport 7 lat 1
router 11
	 connected to router 4 using link 34 at outport 4 lat 1
	 connected to router 10 using link 35 at outport 5 lat 1
	 connected to router 12 using link 36 at outport 6 lat 1
	 connected to router 18 using link 37 at outport 7 lat 1
router 12
	 connected to router 5 using link 38 at outport 4 lat 1
	 connected to router 11 using link 39 at outport 5 lat 1
	 connected to router 13 using link 40 at outport 6 lat 1
	 connected to router 19 using link 41 at outport 7 lat 1
router 13
	 connected to router 6 using link 42 at outport 4 lat 1
	 connected to router 12 using link 43 at outport 5 lat 1
	 connected to router 20 using link 44 at outport 6 lat 1
router 14
	 connected to router 7 using link 45 at outport 4 lat 1
	 connected to router 15 using link 46 at outport 5 lat 1
	 connected to router 21 using link 47 at outport 6 lat 1
router 15
	 connected to router 8 using link 48 at outport 4 lat 1
	 connected to router 14 using link 49 at outport 5 lat 1
	 connected to router 16 using link 50 at outport 6 lat 1
	 connected to router 22 using link 51 at outport 7 lat 1
router 16
	 connected to router 9 using link 52 at outport 4 lat 1
	 connected to router 15 using link 53 at outport 5 lat 1
	 connected to router 17 using link 54 at outport 6 lat 1
	 connected to router 23 using link 55 at outport 7 lat 1
router 17
	 connected to router 10 using link 56 at outport 4 lat 1
	 connected to router 16 using link 57 at outport 5 lat 1
	 connected to router 18 using link 58 at outport 6 lat 1
	 connected to router 24 using link 59 at outport 7 lat 1
router 18
	 connected to router 11 using link 60 at outport 4 lat 1
	 connected to router 17 using link 61 at outport 5 lat 1
	 connected to router 19 using link 62 at outport 6 lat 1
	 connected to router 25 using link 63 at outport 7 lat 1
router 19
	 connected to router 12 using link 64 at outport 4 lat 1
	 connected to router 18 using link 65 at outport 5 lat 1
	 connected to router 20 using link 66 at outport 6 lat 1
	 connected to router 26 using link 67 at outport 7 lat 1
router 20
	 connected to router 13 using link 68 at outport 4 lat 1
	 connected to router 19 using link 69 at outport 5 lat 1
	 connected to router 27 using link 70 at outport 6 lat 1
router 21
	 connected to router 14 using link 71 at outport 4 lat 1
	 connected to router 22 using link 72 at outport 5 lat 1
	 connected to router 28 using link 73 at outport 6 lat 1
router 22
	 connected to router 15 using link 74 at outport 4 lat 1
	 connected to router 21 using link 75 at outport 5 lat 1
	 connected to router 23 using link 76 at outport 6 lat 1
	 connected to router 29 using link 77 at outport 7 lat 1
router 23
	 connected to router 16 using link 78 at outport 4 lat 1
	 connected to router 22 using link 79 at outport 5 lat 1
	 connected to router 24 using link 80 at outport 6 lat 1
	 connected to router 30 using link 81 at outport 7 lat 1
router 24
	 connected to router 17 using link 82 at outport 4 lat 1
	 connected to router 23 using link 83 at outport 5 lat 1
	 connected to router 25 using link 84 at outport 6 lat 1
	 connected to router 31 using link 85 at outport 7 lat 1
router 25
	 connected to router 18 using link 86 at outport 4 lat 1
	 connected to router 24 using link 87 at outport 5 lat 1
	 connected to router 26 using link 88 at outport 6 lat 1
	 connected to router 32 using link 89 at outport 7 lat 1
router 26
	 connected to router 19 using link 90 at outport 4 lat 1
	 connected to router 25 using link 91 at outport 5 lat 1
	 connected to router 27 using link 92 at outport 6 lat 1
	 connected to router 33 using link 93 at outport 7 lat 1
router 27
	 connected to router 20 using link 94 at outport 4 lat 1
	 connected to router 26 using link 95 at outport 5 lat 1
	 connected to router 34 using link 96 at outport 6 lat 1
router 28
	 connected to router 21 using link 97 at outport 4 lat 1
	 connected to router 29 using link 98 at outport 5 lat 1
	 connected to router 35 using link 99 at outport 6 lat 1
router 29
	 connected to router 22 using link 100 at outport 4 lat 1
	 connected to router 28 using link 101 at outport 5 lat 1
	 connected to router 30 using link 102 at outport 6 lat 1
	 connected to router 36 using link 103 at outport 7 lat 1
router 30
	 connected to router 23 using link 104 at outport 4 lat 1
	 connected to router 29 using link 105 at outport 5 lat 1
	 connected to router 31 using link 106 at outport 6 lat 1
	 connected to router 37 using link 107 at outport 7 lat 1
router 31
	 connected to router 24 using link 108 at outport 4 lat 1
	 connected to router 30 using link 109 at outport 5 lat 1
	 connected to router 32 using link 110 at outport 6 lat 1
	 connected to router 38 using link 111 at outport 7 lat 1
router 32
	 connected to router 25 using link 112 at outport 4 lat 1
	 connected to router 31 using link 113 at outport 5 lat 1
	 connected to router 33 using link 114 at outport 6 lat 1
	 connected to router 39 using link 115 at outport 7 lat 1
router 33
	 connected to router 26 using link 116 at outport 4 lat 1
	 connected to router 32 using link 117 at outport 5 lat 1
	 connected to router 34 using link 118 at outport 6 lat 1
	 connected to router 40 using link 119 at outport 7 lat 1
router 34
	 connected to router 27 using link 120 at outport 4 lat 1
	 connected to router 33 using link 121 at outport 5 lat 1
	 connected to router 41 using link 122 at outport 6 lat 1
router 35
	 connected to router 28 using link 123 at outport 4 lat 1
	 connected to router 36 using link 124 at outport 5 lat 1
router 36
	 connected to router 29 using link 125 at outport 4 lat 1
	 connected to router 35 using link 126 at outport 5 lat 1
	 connected to router 37 using link 127 at outport 6 lat 1
router 37
	 connected to router 30 using link 128 at outport 4 lat 1
	 connected to router 36 using link 129 at outport 5 lat 1
	 connected to router 38 using link 130 at outport 6 lat 1
router 38
	 connected to router 31 using link 131 at outport 4 lat 1
	 connected to router 37 using link 132 at outport 5 lat 1
	 connected to router 39 using link 133 at outport 6 lat 1
router 39
	 connected to router 32 using link 134 at outport 4 lat 1
	 connected to router 38 using link 135 at outport 5 lat 1
	 connected to router 40 using link 136 at outport 6 lat 1
router 40
	 connected to router 33 using link 137 at outport 4 lat 1
	 connected to router 39 using link 138 at outport 5 lat 1
	 connected to router 41 using link 139 at outport 6 lat 1
router 41
	 connected to router 34 using link 140 at outport 4 lat 1
	 connected to router 40 using link 141 at outport 5 lat 1
========================== Routing table  =====================
========================Network File Parsed=================
******************node listing**********************
Node 0	Router 0
Node 1	Router 0
Node 2	Router 0
Node 3	Router 0
Node 4	Router 1
Node 5	Router 1
Node 6	Router 1
Node 7	Router 1
Node 8	Router 2
Node 9	Router 2
Node 10	Router 2
Node 11	Router 2
Node 12	Router 3
Node 13	Router 3
Node 14	Router 3
Node 15	Router 3
Node 16	Router 4
Node 17	Router 4
Node 18	Router 4
Node 19	Router 4
Node 20	Router 5
Node 21	Router 5
Node 22	Router 5
Node 23	Router 5
Node 24	Router 6
Node 25	Router 6
Node 26	Router 6
Node 27	Router 6
Node 28	Router 7
Node 29	Router 7
Node 30	Router 7
Node 31	Router 7
Node 32	Router 8
Node 33	Router 8
Node 34	Router 8
Node 35	Router 8
Node 36	Router 9
Node 37	Router 9
Node 38	Router 9
Node 39	Router 9
Node 40	Router 10
Node 41	Router 10
Node 42	Router 10
Node 43	Router 10
Node 44	Router 11
Node 45	Router 11
Node 46	Router 11
Node 47	Router 11
Node 48	Router 12
Node 49	Router 12
Node 50	Router 12
Node 51	Router 12
Node 52	Router 13
Node 53	Router 13
Node 54	Router 13
Node 55	Router 13
Node 56	Router 14
Node 57	Router 14
Node 58	Router 14
Node 59	Router 14
Node 60	Router 15
Node 61	Router 15
Node 62	Router 15
Node 63	Router 15
Node 64	Router 16
Node 65	Router 16
Node 66	Router 16
Node 67	Router 16
Node 68	Router 17
Node 69	Router 17
Node 70	Router 17
Node 71	Router 17
Node 72	Router 18
Node 73	Router 18
Node 74	Router 18
Node 75	Router 18
Node 76	Router 19
Node 77	Router 19
Node 78	Router 19
Node 79	Router 19
Node 80	Router 20
Node 81	Router 20
Node 82	Router 20
Node 83	Router 20
Node 84	Router 21
Node 85	Router 21
Node 86	Router 21
Node 87	Router 21
Node 88	Router 22
Node 89	Router 22
Node 90	Router 22
Node 91	Router 22
Node 92	Router 23
Node 93	Router 23
Node 94	Router 23
Node 95	Router 23
Node 96	Router 24
Node 97	Router 24
Node 98	Router 24
Node 99	Router 24
Node 100	Router 25
Node 101	Router 25
Node 102	Router 25
Node 103	Router 25
Node 104	Router 26
Node 105	Router 26
Node 106	Router 26
Node 107	Router 26
Node 108	Router 27
Node 109	Router 27
Node 110	Router 27
Node 111	Router 27
Node 112	Router 28
Node 113	Router 28
Node 114	Router 28
Node 115	Router 28
Node 116	Router 29
Node 117	Router 29
Node 118	Router 29
Node 119	Router 29
Node 120	Router 30
Node 121	Router 30
Node 122	Router 30
Node 123	Router 30
Node 124	Router 31
Node 125	Router 31
Node 126	Router 31
Node 127	Router 31
Node 128	Router 32
Node 129	Router 32
Node 130	Router 32
Node 131	Router 32
Node 132	Router 33
Node 133	Router 33
Node 134	Router 33
Node 135	Router 33
Node 136	Router 34
Node 137	Router 34
Node 138	Router 34
Node 139	Router 34
Node 140	Router 35
Node 141	Router 35
Node 142	Router 35
Node 143	Router 35
Node 144	Router 36
Node 145	Router 36
Node 146	Router 36
Node 147	Router 36
Node 148	Router 37
Node 149	Router 37
Node 150	Router 37
Node 151	Router 37
Node 152	Router 38
Node 153	Router 38
Node 154	Router 38
Node 155	Router 38
Node 156	Router 39
Node 157	Router 39
Node 158	Router 39
Node 159	Router 39
Node 160	Router 40
Node 161	Router 40
Node 162	Router 40
Node 163	Router 40
Node 164	Router 41
Node 165	Router 41
Node 166	Router 41
Node 167	Router 41

****************router to node listing*************
Router 0
	 Node 0 lat 1
	 Node 1 lat 1
	 Node 2 lat 1
	 Node 3 lat 1
Router 1
	 Node 4 lat 1
	 Node 5 lat 1
	 Node 6 lat 1
	 Node 7 lat 1
Router 2
	 Node 8 lat 1
	 Node 9 lat 1
	 Node 10 lat 1
	 Node 11 lat 1
Router 3
	 Node 12 lat 1
	 Node 13 lat 1
	 Node 14 lat 1
	 Node 15 lat 1
Router 4
	 Node 16 lat 1
	 Node 17 lat 1
	 Node 18 lat 1
	 Node 19 lat 1
Router 5
	 Node 20 lat 1
	 Node 21 lat 1
	 Node 22 lat 1
	 Node 23 lat 1
Router 6
	 Node 24 lat 1
	 Node 25 lat 1
	 Node 26 lat 1
	 Node 27 lat 1
Router 7
	 Node 28 lat 1
	 Node 29 lat 1
	 Node 30 lat 1
	 Node 31 lat 1
Router 8
	 Node 32 lat 1
	 Node 33 lat 1
	 Node 34 lat 1
	 Node 35 lat 1
Router 9
	 Node 36 lat 1
	 Node 37 lat 1
	 Node 38 lat 1
	 Node 39 lat 1
Router 10
	 Node 40 lat 1
	 Node 41 lat 1
	 Node 42 lat 1
	 Node 43 lat 1
Router 11
	 Node 44 lat 1
	 Node 45 lat 1
	 Node 46 lat 1
	 Node 47 lat 1
Router 12
	 Node 48 lat 1
	 Node 49 lat 1
	 Node 50 lat 1
	 Node 51 lat 1
Router 13
	 Node 52 lat 1
	 Node 53 lat 1
	 Node 54 lat 1
	 Node 55 lat 1
Router 14
	 Node 56 lat 1
	 Node 57 lat 1
	 Node 58 lat 1
	 Node 59 lat 1
Router 15
	 Node 60 lat 1
	 Node 61 lat 1
	 Node 62 lat 1
	 Node 63 lat 1
Router 16
	 Node 64 lat 1
	 Node 65 lat 1
	 Node 66 lat 1
	 Node 67 lat 1
Router 17
	 Node 68 lat 1
	 Node 69 lat 1
	 Node 70 lat 1
	 Node 71 lat 1
Router 18
	 Node 72 lat 1
	 Node 73 lat 1
	 Node 74 lat 1
	 Node 75 lat 1
Router 19
	 Node 76 lat 1
	 Node 77 lat 1
	 Node 78 lat 1
	 Node 79 lat 1
Router 20
	 Node 80 lat 1
	 Node 81 lat 1
	 Node 82 lat 1
	 Node 83 lat 1
Router 21
	 Node 84 lat 1
	 Node 85 lat 1
	 Node 86 lat 1
	 Node 87 lat 1
Router 22
	 Node 88 lat 1
	 Node 89 lat 1
	 Node 90 lat 1
	 Node 91 lat 1
Router 23
	 Node 92 lat 1
	 Node 93 lat 1
	 Node 94 lat 1
	 Node 95 lat 1
Router 24
	 Node 96 lat 1
	 Node 97 lat 1
	 Node 98 lat 1
	 Node 99 lat 1
Router 25
	 Node 100 lat 1
	 Node 101 lat 1
	 Node 102 lat 1
	 Node 103 lat 1
Router 26
	 Node 104 lat 1
	 Node 105 lat 1
	 Node 106 lat 1
	 Node 107 lat 1
Router 27
	 Node 108 lat 1
	 Node 109 lat 1
	 Node 110 lat 1
	 Node 111 lat 1
Router 28
	 Node 112 lat 1
	 Node 113 lat 1
	 Node 114 lat 1
	 Node 115 lat 1
Router 29
	 Node 116 lat 1
	 Node 117 lat 1
	 Node 118 lat 1
	 Node 119 lat 1
Router 30
	 Node 120 lat 1
	 Node 121 lat 1
	 Node 122 lat 1
	 Node 123 lat 1
Router 31
	 Node 124 lat 1
	 Node 125 lat 1
	 Node 126 lat 1
	 Node 127 lat 1
Router 32
	 Node 128 lat 1
	 Node 129 lat 1
	 Node 130 lat 1
	 Node 131 lat 1
Router 33
	 Node 132 lat 1
	 Node 133 lat 1
	 Node 134 lat 1
	 Node 135 lat 1
Router 34
	 Node 136 lat 1
	 Node 137 lat 1
	 Node 138 lat 1
	 Node 139 lat 1
Router 35
	 Node 140 lat 1
	 Node 141 lat 1
	 Node 142 lat 1
	 Node 143 lat 1
Router 36
	 Node 144 lat 1
	 Node 145 lat 1
	 Node 146 lat 1
	 Node 147 lat 1
Router 37
	 Node 148 lat 1
	 Node 149 lat 1
	 Node 150 lat 1
	 Node 151 lat 1
Router 38
	 Node 152 lat 1
	 Node 153 lat 1
	 Node 154 lat 1
	 Node 155 lat 1
Router 39
	 Node 156 lat 1
	 Node 157 lat 1
	 Node 158 lat 1
	 Node 159 lat 1
Router 40
	 Node 160 lat 1
	 Node 161 lat 1
	 Node 162 lat 1
	 Node 163 lat 1
Router 41
	 Node 164 lat 1
	 Node 165 lat 1
	 Node 166 lat 1
	 Node 167 lat 1

*****************router to router listing************
Router 0
	 Router 1 lat 1
	 Router 7 lat 1
Router 1
	 Router 0 lat 1
	 Router 2 lat 1
	 Router 8 lat 1
Router 2
	 Router 1 lat 1
	 Router 3 lat 1
	 Router 9 lat 1
Router 3
	 Router 2 lat 1
	 Router 4 lat 1
	 Router 10 lat 1
Router 4
	 Router 3 lat 1
	 Router 5 lat 1
	 Router 11 lat 1
Router 5
	 Router 4 lat 1
	 Router 6 lat 1
	 Router 12 lat 1
Router 6
	 Router 5 lat 1
	 Router 13 lat 1
Router 7
	 Router 0 lat 1
	 Router 8 lat 1
	 Router 14 lat 1
Router 8
	 Router 1 lat 1
	 Router 7 lat 1
	 Router 9 lat 1
	 Router 15 lat 1
Router 9
	 Router 2 lat 1
	 Router 8 lat 1
	 Router 10 lat 1
	 Router 16 lat 1
Router 10
	 Router 3 lat 1
	 Router 9 lat 1
	 Router 11 lat 1
	 Router 17 lat 1
Router 11
	 Router 4 lat 1
	 Router 10 lat 1
	 Router 12 lat 1
	 Router 18 lat 1
Router 12
	 Router 5 lat 1
	 Router 11 lat 1
	 Router 13 lat 1
	 Router 19 lat 1
Router 13
	 Router 6 lat 1
	 Router 12 lat 1
	 Router 20 lat 1
Router 14
	 Router 7 lat 1
	 Router 15 lat 1
	 Router 21 lat 1
Router 15
	 Router 8 lat 1
	 Router 14 lat 1
	 Router 16 lat 1
	 Router 22 lat 1
Router 16
	 Router 9 lat 1
	 Router 15 lat 1
	 Router 17 lat 1
	 Router 23 lat 1
Router 17
	 Router 10 lat 1
	 Router 16 lat 1
	 Router 18 lat 1
	 Router 24 lat 1
Router 18
	 Router 11 lat 1
	 Router 17 lat 1
	 Router 19 lat 1
	 Router 25 lat 1
Router 19
	 Router 12 lat 1
	 Router 18 lat 1
	 Router 20 lat 1
	 Router 26 lat 1
Router 20
	 Router 13 lat 1
	 Router 19 lat 1
	 Router 27 lat 1
Router 21
	 Router 14 lat 1
	 Router 22 lat 1
	 Router 28 lat 1
Router 22
	 Router 15 lat 1
	 Router 21 lat 1
	 Router 23 lat 1
	 Router 29 lat 1
Router 23
	 Router 16 lat 1
	 Router 22 lat 1
	 Router 24 lat 1
	 Router 30 lat 1
Router 24
	 Router 17 lat 1
	 Router 23 lat 1
	 Router 25 lat 1
	 Router 31 lat 1
Router 25
	 Router 18 lat 1
	 Router 24 lat 1
	 Router 26 lat 1
	 Router 32 lat 1
Router 26
	 Router 19 lat 1
	 Router 25 lat 1
	 Router 27 lat 1
	 Router 33 lat 1
Router 27
	 Router 20 lat 1
	 Router 26 lat 1
	 Router 34 lat 1
Router 28
	 Router 21 lat 1
	 Router 29 lat 1
	 Router 35 lat 1
Router 29
	 Router 22 lat 1
	 Router 28 lat 1
	 Router 30 lat 1
	 Router 36 lat 1
Router 30
	 Router 23 lat 1
	 Router 29 lat 1
	 Router 31 lat 1
	 Router 37 lat 1
Router 31
	 Router 24 lat 1
	 Router 30 lat 1
	 Router 32 lat 1
	 Router 38 lat 1
Router 32
	 Router 25 lat 1
	 Router 31 lat 1
	 Router 33 lat 1
	 Router 39 lat 1
Router 33
	 Router 26 lat 1
	 Router 32 lat 1
	 Router 34 lat 1
	 Router 40 lat 1
Router 34
	 Router 27 lat 1
	 Router 33 lat 1
	 Router 41 lat 1
Router 35
	 Router 28 lat 1
	 Router 36 lat 1
Router 36
	 Router 29 lat 1
	 Router 35 lat 1
	 Router 37 lat 1
Router 37
	 Router 30 lat 1
	 Router 36 lat 1
	 Router 38 lat 1
Router 38
	 Router 31 lat 1
	 Router 37 lat 1
	 Router 39 lat 1
Router 39
	 Router 32 lat 1
	 Router 38 lat 1
	 Router 40 lat 1
Router 40
	 Router 33 lat 1
	 Router 39 lat 1
	 Router 41 lat 1
Router 41
	 Router 34 lat 1
	 Router 40 lat 1
==========================Node to Router =====================
router 0 radix 6
	 connected to node 0 at outport 0 lat 1
	 connected to node 1 at outport 1 lat 1
	 connected to node 2 at outport 2 lat 1
	 connected to node 3 at outport 3 lat 1
router 1 radix 7
	 connected to node 4 at outport 0 lat 1
	 connected to node 5 at outport 1 lat 1
	 connected to node 6 at outport 2 lat 1
	 connected to node 7 at outport 3 lat 1
router 2 radix 7
	 connected to node 8 at outport 0 lat 1
	 connected to node 9 at outport 1 lat 1
	 connected to node 10 at outport 2 lat 1
	 connected to node 11 at outport 3 lat 1
router 3 radix 7
	 connected to node 12 at outport 0 lat 1
	 connected to node 13 at outport 1 lat 1
	 connected to node 14 at outport 2 lat 1
	 connected to node 15 at outport 3 lat 1
router 4 radix 7
	 connected to node 16 at outport 0 lat 1
	 connected to node 17 at outport 1 lat 1
	 connected to node 18 at outport 2 lat 1
	 connected to node 19 at outport 3 lat 1
router 5 radix 7
	 connected to node 20 at outport 0 lat 1
	 connected to node 21 at outport 1 lat 1
	 connected to node 22 at outport 2 lat 1
	 connected to node 23 at outport 3 lat 1
router 6 radix 6
	 connected to node 24 at outport 0 lat 1
	 connected to node 25 at outport 1 lat 1
	 connected to node 26 at outport 2 lat 1
	 connected to node 27 at outport 3 lat 1
router 7 radix 7
	 connected to node 28 at outport 0 lat 1
	 connected to node 29 at outport 1 lat 1
	 connected to node 30 at outport 2 lat 1
	 connected to node 31 at outport 3 lat 1
router 8 radix 8
	 connected to node 32 at outport 0 lat 1
	 connected to node 33 at outport 1 lat 1
	 connected to node 34 at outport 2 lat 1
	 connected to node 35 at outport 3 lat 1
router 9 radix 8
	 connected to node 36 at outport 0 lat 1
	 connected to node 37 at outport 1 lat 1
	 connected to node 38 at outport 2 lat 1
	 connected to node 39 at outport 3 lat 1
router 10 radix 8
	 connected to node 40 at outport 0 lat 1
	 connected to node 41 at outport 1 lat 1
	 connected to node 42 at outport 2 lat 1
	 connected to node 43 at outport 3 lat 1
router 11 radix 8
	 connected to node 44 at outport 0 lat 1
	 connected to node 45 at outport 1 lat 1
	 connected to node 46 at outport 2 lat 1
	 connected to node 47 at outport 3 lat 1
router 12 radix 8
	 connected to node 48 at outport 0 lat 1
	 connected to node 49 at outport 1 lat 1
	 connected to node 50 at outport 2 lat 1
	 connected to node 51 at outport 3 lat 1
router 13 radix 7
	 connected to node 52 at outport 0 lat 1
	 connected to node 53 at outport 1 lat 1
	 connected to node 54 at outport 2 lat 1
	 connected to node 55 at outport 3 lat 1
router 14 radix 7
	 connected to node 56 at outport 0 lat 1
	 connected to node 57 at outport 1 lat 1
	 connected to node 58 at outport 2 lat 1
	 connected to node 59 at outport 3 lat 1
router 15 radix 8
	 connected to node 60 at outport 0 lat 1
	 connected to node 61 at outport 1 lat 1
	 connected to node 62 at outport 2 lat 1
	 connected to node 63 at outport 3 lat 1
router 16 radix 8
	 connected to node 64 at outport 0 lat 1
	 connected to node 65 at outport 1 lat 1
	 connected to node 66 at outport 2 lat 1
	 connected to node 67 at outport 3 lat 1
router 17 radix 8
	 connected to node 68 at outport 0 lat 1
	 connected to node 69 at outport 1 lat 1
	 connected to node 70 at outport 2 lat 1
	 connected to node 71 at outport 3 lat 1
router 18 radix 8
	 connected to node 72 at outport 0 lat 1
	 connected to node 73 at outport 1 lat 1
	 connected to node 74 at outport 2 lat 1
	 connected to node 75 at outport 3 lat 1
router 19 radix 8
	 connected to node 76 at outport 0 lat 1
	 connected to node 77 at outport 1 lat 1
	 connected to node 78 at outport 2 lat 1
	 connected to node 79 at outport 3 lat 1
router 20 radix 7
	 connected to node 80 at outport 0 lat 1
	 connected to node 81 at outport 1 lat 1
	 connected to node 82 at outport 2 lat 1
	 connected to node 83 at outport 3 lat 1
router 21 radix 7
	 connected to node 84 at outport 0 lat 1
	 connected to node 85 at outport 1 lat 1
	 connected to node 86 at outport 2 lat 1
	 connected to node 87 at outport 3 lat 1
router 22 radix 8
	 connected to node 88 at outport 0 lat 1
	 connected to node 89 at outport 1 lat 1
	 connected to node 90 at outport 2 lat 1
	 connected to node 91 at outport 3 lat 1
router 23 radix 8
	 connected to node 92 at outport 0 lat 1
	 connected to node 93 at outport 1 lat 1
	 connected to node 94 at outport 2 lat 1
	 connected to node 95 at outport 3 lat 1
router 24 radix 8
	 connected to node 96 at outport 0 lat 1
	 connected to node 97 at outport 1 lat 1
	 connected to node 98 at outport 2 lat 1
	 connected to node 99 at outport 3 lat 1
router 25 radix 8
	 connected to node 100 at outport 0 lat 1
	 connected to node 101 at outport 1 lat 1
	 connected to node 102 at outport 2 lat 1
	 connected to node 103 at outport 3 lat 1
router 26 radix 8
	 connected to node 104 at outport 0 lat 1
	 connected to node 105 at outport 1 lat 1
	 connected to node 106 at outport 2 lat 1
	 connected to node 107 at outport 3 lat 1
router 27 radix 7
	 connected to node 108 at outport 0 lat 1
	 connected to node 109 at outport 1 lat 1
	 connected to node 110 at outport 2 lat 1
	 connected to node 111 at outport 3 lat 1
router 28 radix 7
	 connected to node 112 at outport 0 lat 1
	 connected to node 113 at outport 1 lat 1
	 connected to node 114 at outport 2 lat 1
	 connected to node 115 at outport 3 lat 1
router 29 radix 8
	 connected to node 116 at outport 0 lat 1
	 connected to node 117 at outport 1 lat 1
	 connected to node 118 at outport 2 lat 1
	 connected to node 119 at outport 3 lat 1
router 30 radix 8
	 connected to node 120 at outport 0 lat 1
	 connected to node 121 at outport 1 lat 1
	 connected to node 122 at outport 2 lat 1
	 connected to node 123 at outport 3 lat 1
router 31 radix 8
	 connected to node 124 at outport 0 lat 1
	 connected to node 125 at outport 1 lat 1
	 connected to node 126 at outport 2 lat 1
	 connected to node 127 at outport 3 lat 1
router 32 radix 8
	 connected to node 128 at outport 0 lat 1
	 connected to node 129 at outport 1 lat 1
	 connected to node 130 at outport 2 lat 1
	 connected to node 131 at outport 3 lat 1
router 33 radix 8
	 connected to node 132 at outport 0 lat 1
	 connected to node 133 at outport 1 lat 1
	 connected to node 134 at outport 2 lat 1
	 connected to node 135 at outport 3 lat 1
router 34 radix 7
	 connected to node 136 at outport 0 lat 1
	 connected to node 137 at outport 1 lat 1
	 connected to node 138 at outport 2 lat 1
	 connected to node 139 at outport 3 lat 1
router 35 radix 6
	 connected to node 140 at outport 0 lat 1
	 connected to node 141 at outport 1 lat 1
	 connected to node 142 at outport 2 lat 1
	 connected to node 143 at outport 3 lat 1
router 36 radix 7
	 connected to node 144 at outport 0 lat 1
	 connected to node 145 at outport 1 lat 1
	 connected to node 146 at outport 2 lat 1
	 connected to node 147 at outport 3 lat 1
router 37 radix 7
	 connected to node 148 at outport 0 lat 1
	 connected to node 149 at outport 1 lat 1
	 connected to node 150 at outport 2 lat 1
	 connected to node 151 at outport 3 lat 1
router 38 radix 7
	 connected to node 152 at outport 0 lat 1
	 connected to node 153 at outport 1 lat 1
	 connected to node 154 at outport 2 lat 1
	 connected to node 155 at outport 3 lat 1
router 39 radix 7
	 connected to node 156 at outport 0 lat 1
	 connected to node 157 at outport 1 lat 1
	 connected to node 158 at outport 2 lat 1
	 connected to node 159 at outport 3 lat 1
router 40 radix 7
	 connected to node 160 at outport 0 lat 1
	 connected to node 161 at outport 1 lat 1
	 connected to node 162 at outport 2 lat 1
	 connected to node 163 at outport 3 lat 1
router 41 radix 6
	 connected to node 164 at outport 0 lat 1
	 connected to node 165 at outport 1 lat 1
	 connected to node 166 at outport 2 lat 1
	 connected to node 167 at outport 3 lat 1
==========================Router to Router =====================
router 0
	 connected to router 1 using link 0 at outport 4 lat 1
	 connected to router 7 using link 1 at outport 5 lat 1
router 1
	 connected to router 0 using link 2 at outport 4 lat 1
	 connected to router 2 using link 3 at outport 5 lat 1
	 connected to router 8 using link 4 at outport 6 lat 1
router 2
	 connected to router 1 using link 5 at outport 4 lat 1
	 connected to router 3 using link 6 at outport 5 lat 1
	 connected to router 9 using link 7 at outport 6 lat 1
router 3
	 connected to router 2 using link 8 at outport 4 lat 1
	 connected to router 4 using link 9 at outport 5 lat 1
	 connected to router 10 using link 10 at outport 6 lat 1
router 4
	 connected to router 3 using link 11 at outport 4 lat 1
	 connected to router 5 using link 12 at outport 5 lat 1
	 connected to router 11 using link 13 at outport 6 lat 1
router 5
	 connected to router 4 using link 14 at outport 4 lat 1
	 connected to router 6 using link 15 at outport 5 lat 1
	 connected to router 12 using link 16 at outport 6 lat 1
router 6
	 connected to router 5 using link 17 at outport 4 lat 1
	 connected to router 13 using link 18 at outport 5 lat 1
router 7
	 connected to router 0 using link 19 at outport 4 lat 1
	 connected to router 8 using link 20 at outport 5 lat 1
	 connected to router 14 using link 21 at outport 6 lat 1
router 8
	 connected to router 1 using link 22 at outport 4 lat 1
	 connected to router 7 using link 23 at outport 5 lat 1
	 connected to router 9 using link 24 at outport 6 lat 1
	 connected to router 15 using link 25 at outport 7 lat 1
router 9
	 connected to router 2 using link 26 at outport 4 lat 1
	 connected to router 8 using link 27 at outport 5 lat 1
	 connected to router 10 using link 28 at outport 6 lat 1
	 connected to router 16 using link 29 at outport 7 lat 1
router 10
	 connected to router 3 using link 30 at outport 4 lat 1
	 connected to router 9 using link 31 at outport 5 lat 1
	 connected to router 11 using link 32 at outport 6 lat 1
	 connected to router 17 using link 33 at outport 7 lat 1
router 11
	 connected to router 4 using link 34 at outport 4 lat 1
	 connected to router 10 using link 35 at outport 5 lat 1
	 connected to router 12 using link 36 at outport 6 lat 1
	 connected to router 18 using link 37 at outport 7 lat 1
router 12
	 connected to router 5 using link 38 at outport 4 lat 1
	 connected to router 11 using link 39 at outport 5 lat 1
	 connected to router 13 using link 40 at outport 6 lat 1
	 connected to router 19 using link 41 at outport 7 lat 1
router 13
	 connected to router 6 using link 42 at outport 4 lat 1
	 connected to router 12 using link 43 at outport 5 lat 1
	 connected to router 20 using link 44 at outport 6 lat 1
router 14
	 connected to router 7 using link 45 at outport 4 lat 1
	 connected to router 15 using link 46 at outport 5 lat 1
	 connected to router 21 using link 47 at outport 6 lat 1
router 15
	 connected to router 8 using link 48 at outport 4 lat 1
	 connected to router 14 using link 49 at outport 5 lat 1
	 connected to router 16 using link 50 at outport 6 lat 1
	 connected to router 22 using link 51 at outport 7 lat 1
router 16
	 connected to router 9 using link 52 at outport 4 lat 1
	 connected to router 15 using link 53 at outport 5 lat 1
	 connected to router 17 using link 54 at outport 6 lat 1
	 connected to router 23 using link 55 at outport 7 lat 1
router 17
	 connected to router 10 using link 56 at outport 4 lat 1
	 connected to router 16 using link 57 at outport 5 lat 1
	 connected to router 18 using link 58 at outport 6 lat 1
	 connected to router 24 using link 59 at outport 7 lat 1
router 18
	 connected to router 11 using link 60 at outport 4 lat 1
	 connected to router 17 using link 61 at outport 5 lat 1
	 connected to router 19 using link 62 at outport 6 lat 1
	 connected to router 25 using link 63 at outport 7 lat 1
router 19
	 connected to router 12 using link 64 at outport 4 lat 1
	 connected to router 18 using link 65 at outport 5 lat 1
	 connected to router 20 using link 66 at outport 6 lat 1
	 connected to router 26 using link 67 at outport 7 lat 1
router 20
	 connected to router 13 using link 68 at outport 4 lat 1
	 connected to router 19 using link 69 at outport 5 lat 1
	 connected to router 27 using link 70 at outport 6 lat 1
router 21
	 connected to router 14 using link 71 at outport 4 lat 1
	 connected to router 22 using link 72 at outport 5 lat 1
	 connected to router 28 using link 73 at outport 6 lat 1
router 22
	 connected to router 15 using link 74 at outport 4 lat 1
	 connected to router 21 using link 75 at outport 5 lat 1
	 connected to router 23 using link 76 at outport 6 lat 1
	 connected to router 29 using link 77 at outport 7 lat 1
router 23
	 connected to router 16 using link 78 at outport 4 lat 1
	 connected to router 22 using link 79 at outport 5 lat 1
	 connected to router 24 using link 80 at outport 6 lat 1
	 connected to router 30 using link 81 at outport 7 lat 1
router 24
	 connected to router 17 using link 82 at outport 4 lat 1
	 connected to router 23 using link 83 at outport 5 lat 1
	 connected to router 25 using link 84 at outport 6 lat 1
	 connected to router 31 using link 85 at outport 7 lat 1
router 25
	 connected to router 18 using link 86 at outport 4 lat 1
	 connected to router 24 using link 87 at outport 5 lat 1
	 connected to router 26 using link 88 at outport 6 lat 1
	 connected to router 32 using link 89 at outport 7 lat 1
router 26
	 connected to router 19 using link 90 at outport 4 lat 1
	 connected to router 25 using link 91 at outport 5 lat 1
	 connected to router 27 using link 92 at outport 6 lat 1
	 connected to router 33 using link 93 at outport 7 lat 1
router 27
	 connected to router 20 using link 94 at outport 4 lat 1
	 connected to router 26 using link 95 at outport 5 lat 1
	 connected to router 34 using link 96 at outport 6 lat 1
router 28
	 connected to router 21 using link 97 at outport 4 lat 1
	 connected to router 29 using link 98 at outport 5 lat 1
	 connected to router 35 using link 99 at outport 6 lat 1
router 29
	 connected to router 22 using link 100 at outport 4 lat 1
	 connected to router 28 using link 101 at outport 5 lat 1
	 connected to router 30 using link 102 at outport 6 lat 1
	 connected to router 36 using link 103 at outport 7 lat 1
router 30
	 connected to router 23 using link 104 at outport 4 lat 1
	 connected to router 29 using link 105 at outport 5 lat 1
	 connected to router 31 using link 106 at outport 6 lat 1
	 connected to router 37 using link 107 at outport 7 lat 1
router 31
	 connected to router 24 using link 108 at outport 4 lat 1
	 connected to router 30 using link 109 at outport 5 lat 1
	 connected to router 32 using link 110 at outport 6 lat 1
	 connected to router 38 using link 111 at outport 7 lat 1
router 32
	 connected to router 25 using link 112 at outport 4 lat 1
	 connected to router 31 using link 113 at outport 5 lat 1
	 connected to router 33 using link 114 at outport 6 lat 1
	 connected to router 39 using link 115 at outport 7 lat 1
router 33
	 connected to router 26 using link 116 at outport 4 lat 1
	 connected to router 32 using link 117 at outport 5 lat 1
	 connected to router 34 using link 118 at outport 6 lat 1
	 connected to router 40 using link 119 at outport 7 lat 1
router 34
	 connected to router 27 using link 120 at outport 4 lat 1
	 connected to router 33 using link 121 at outport 5 lat 1
	 connected to router 41 using link 122 at outport 6 lat 1
router 35
	 connected to router 28 using link 123 at outport 4 lat 1
	 connected to router 36 using link 124 at outport 5 lat 1
router 36
[...]
	minimum = 0 (at node 1)
	maximum = 0.15575 (at node 0)
Injected packet length average = 1
Accepted packet length average = 1
Total in-flight flits = 4 (4 measured)
Class 3:
Packet latency average = 35.5458
	minimum = 7
	maximum = 64
Network latency average = 35.5458
	minimum = 7
	maximum = 64
Slowest packet = 3320
Flit latency average = 35.5916
	minimum = 7
	maximum = 64
Slowest flit = 6604
Fragmentation average = 0
	minimum = 0
	maximum = 0
Injected packet rate average = 0.00125
	minimum = 0 (at node 8)
	maximum = 0.003 (at node 123)
Accepted packet rate average = 0.00124256
	minimum = 0 (at node 0)
	maximum = 0.20875 (at node 2)
Injected flit rate average = 0.00125
	minimum = 0 (at node 8)
	maximum = 0.003 (at node 123)
Accepted flit rate average= 0.00124256
	minimum = 0 (at node 0)
	maximum = 0.20875 (at node 2)
Injected packet length average = 1
Accepted packet length average = 1
Total in-flight flits = 10 (10 measured)
Class 4:
Packet latency average = 45.0922
	minimum = 11
	maximum = 87
Network latency average = 45.0825
	minimum = 11
	maximum = 87
Slowest packet = 3827
Flit latency average = 39.7861
	minimum = 7
	maximum = 83
Slowest flit = 7627
Fragmentation average = 2.54854
	minimum = 0
	maximum = 5
Injected packet rate average = 0.000311012
	minimum = 0 (at node 1)
	maximum = 0.00125 (at node 65)
Accepted packet rate average = 0.0003125
	minimum = 0 (at node 0)
	maximum = 0.0525 (at node 2)
Injected flit rate average = 0.00155506
	minimum = 0 (at node 1)
	maximum = 0.00625 (at node 65)
Accepted flit rate average= 0.00156548
	minimum = 0 (at node 0)
	maximum = 0.263 (at node 2)
Injected packet length average = 5
Accepted packet length average = 5.00952
Total in-flight flits = 12 (12 measured)
latency change    = 0.00760156
throughput change = 0.0439122
latency change    = 0.0172876
throughput change = 0.0260417
latency change    = 0.0126708
throughput change = 0.0369181
latency change    = 0.0159248
throughput change = 0.0211577
latency change    = 0.0345596
throughput change = 0.0760456
Class 0:
Packet latency average = 34.409
	minimum = 7
	maximum = 64
Network latency average = 34.409
	minimum = 7
	maximum = 64
Slowest packet = 3337
Flit latency average = 34.4811
	minimum = 7
	maximum = 64
Slowest flit = 6629
Fragmentation average = 0
	minimum = 0
	maximum = 0
Injected packet rate average = 0.00100595
	minimum = 0 (at node 10)
	maximum = 0.0026 (at node 13)
Accepted packet rate average = 0.00100952
	minimum = 0 (at node 0)
	maximum = 0.1696 (at node 2)
Injected flit rate average = 0.00100595
	minimum = 0 (at node 10)
	maximum = 0.0026 (at node 13)
Accepted flit rate average= 0.00100952
	minimum = 0 (at node 0)
	maximum = 0.1696 (at node 2)
Injected packet length average = 1
Accepted packet length average = 1
Total in-flight flits = 4 (4 measured)
Class 1:
Packet latency average = 48.7065
	minimum = 11
	maximum = 111
Network latency average = 48.7014
	minimum = 11
	maximum = 111
Slowest packet = 5548
Flit latency average = 43.1883
	minimum = 7
	maximum = 107
Slowest flit = 10872
Fragmentation average = 2.96416
	minimum = 0
	maximum = 5
Injected packet rate average = 0.000709524
	minimum = 0 (at node 30)
	maximum = 0.0022 (at node 131)
Accepted packet rate average = 0.000705952
	minimum = 0 (at node 1)
	maximum = 0.1186 (at node 0)
Injected flit rate average = 0.00354762
	minimum = 0 (at node 30)
	maximum = 0.011 (at node 131)
Accepted flit rate average= 0.00352857
	minimum = 0 (at node 1)
	maximum = 0.5928 (at node 0)
Injected packet length average = 5
Accepted packet length average = 4.99831
Total in-flight flits = 47 (47 measured)
Class 2:
Packet latency average = 34.5649
	minimum = 7
	maximum = 64
Network latency average = 34.5649
	minimum = 7
	maximum = 64
Slowest packet = 4331
Flit latency average = 34.607
	minimum = 7
	maximum = 64
Slowest flit = 8635
Fragmentation average = 0
	minimum = 0
	maximum = 0
Injected packet rate average = 0.00095119
	minimum = 0 (at node 113)
	maximum = 0.002 (at node 12)
Accepted packet rate average = 0.00095119
	minimum = 0 (at node 1)
	maximum = 0.1598 (at node 0)
Injected flit rate average = 0.00095119
	minimum = 0 (at node 113)
	maximum = 0.002 (at node 12)
Accepted flit rate average= 0.00095119
	minimum = 0 (at node 1)
	maximum = 0.1598 (at node 0)
Injected packet length average = 1
Accepted packet length average = 1
Total in-flight flits = 6 (6 measured)
Class 3:
Packet latency average = 35.3909
	minimum = 7
	maximum = 64
Network latency average = 35.3909
	minimum = 7
	maximum = 64
Slowest packet = 3320
Flit latency average = 35.4278
	minimum = 7
	maximum = 64
Slowest flit = 6604
Fragmentation average = 0
	minimum = 0
	maximum = 0
Injected packet rate average = 0.0012619
	minimum = 0 (at node 166)
	maximum = 0.0026 (at node 50)
Accepted packet rate average = 0.00126071
	minimum = 0 (at node 0)
	maximum = 0.2118 (at node 2)
Injected flit rate average = 0.0012619
	minimum = 0 (at node 166)
	maximum = 0.0026 (at node 50)
Accepted flit rate average= 0.00126071
	minimum = 0 (at node 0)
	maximum = 0.2118 (at node 2)
Injected packet length average = 1
Accepted packet length average = 1
Total in-flight flits = 6 (6 measured)
Class 4:
Packet latency average = 44.8206
	minimum = 11
	maximum = 109
Network latency average = 44.813
	minimum = 11
	maximum = 109
Slowest packet = 5568
Flit latency average = 39.5591
	minimum = 7
	maximum = 105
Slowest flit = 10924
Fragmentation average = 2.56107
	minimum = 0
	maximum = 6
Injected packet rate average = 0.000319048
	minimum = 0 (at node 1)
	maximum = 0.0012 (at node 65)
Accepted packet rate average = 0.000316667
	minimum = 0 (at node 0)
	maximum = 0.0532 (at node 2)
Injected flit rate average = 0.00159524
	minimum = 0 (at node 1)
	maximum = 0.006 (at node 65)
Accepted flit rate average= 0.00158214
	minimum = 0 (at node 0)
	maximum = 0.2658 (at node 2)
Injected packet length average = 5
Accepted packet length average = 4.99624
Total in-flight flits = 30 (30 measured)
latency change    = 0.0104477
throughput change = 0.0153302
latency change    = 0.0320062
throughput change = 0.0283401
latency change    = 0.00686608
throughput change = 0.0253442
latency change    = 0.00437659
throughput change = 0.0144004
latency change    = 0.00606021
throughput change = 0.0105342
Class 0:
Packet latency average = 34.3554
	minimum = 7
	maximum = 64
Network latency average = 34.3554
	minimum = 7
	maximum = 64
Slowest packet = 3337
Flit latency average = 34.4159
	minimum = 7
	maximum = 64
Slowest flit = 6629
Fragmentation average = 0
	minimum = 0
	maximum = 0
Injected packet rate average = 0.00100992
	minimum = 0 (at node 80)
	maximum = 0.0025 (at node 13)
Accepted packet rate average = 0.00100893
	minimum = 0 (at node 0)
	maximum = 0.1695 (at node 2)
Injected flit rate average = 0.00100992
	minimum = 0 (at node 80)
	maximum = 0.0025 (at node 13)
Accepted flit rate average= 0.00100893
	minimum = 0 (at node 0)
	maximum = 0.1695 (at node 2)
Injected packet length average = 1
Accepted packet length average = 1
Total in-flight flits = 8 (8 measured)
Class 1:
Packet latency average = 48.6893
	minimum = 11
	maximum = 111
Network latency average = 48.685
	minimum = 11
	maximum = 111
Slowest packet = 5548
Flit latency average = 43.1622
	minimum = 7
	maximum = 107
Slowest flit = 10872
Fragmentation average = 2.96893
	minimum = 0
	maximum = 5
Injected packet rate average = 0.000709325
	minimum = 0 (at node 30)
	maximum = 0.002 (at node 131)
Accepted packet rate average = 0.000709325
	minimum = 0 (at node 1)
	maximum = 0.119167 (at node 0)
Injected flit rate average = 0.00354663
	minimum = 0 (at node 30)
	maximum = 0.01 (at node 131)
Accepted flit rate average= 0.00354663
	minimum = 0 (at node 1)
	maximum = 0.595833 (at node 0)
Injected packet length average = 5
Accepted packet length average = 5
Total in-flight flits = 31 (31 measured)
Class 2:
Packet latency average = 34.4887
	minimum = 7
	maximum = 64
Network latency average = 34.4887
	minimum = 7
	maximum = 64
Slowest packet = 4331
Flit latency average = 34.5251
	minimum = 7
	maximum = 64
Slowest flit = 8635
Fragmentation average = 0
	minimum = 0
	maximum = 0
Injected packet rate average = 0.000928571
	minimum = 0.000166667 (at node 58)
	maximum = 0.002 (at node 114)
Accepted packet rate average = 0.000929563
	minimum = 0 (at node 1)
	maximum = 0.156167 (at node 0)
Injected flit rate average = 0.000928571
	minimum = 0.000166667 (at node 58)
	maximum = 0.002 (at node 114)
Accepted flit rate average= 0.000929563
	minimum = 0 (at node 1)
	maximum = 0.156167 (at node 0)
Injected packet length average = 1
Accepted packet length average = 1
Total in-flight flits = 5 (5 measured)
Class 3:
Packet latency average = 35.2214
	minimum = 7
	maximum = 64
Network latency average = 35.2214
	minimum = 7
	maximum = 64
Slowest packet = 3320
Flit latency average = 35.253
	minimum = 7
	maximum = 64
Slowest flit = 6604
Fragmentation average = 0
	minimum = 0
	maximum = 0
Injected packet rate average = 0.00125595
	minimum = 0 (at node 166)
	maximum = 0.00266667 (at node 82)
Accepted packet rate average = 0.00125496
	minimum = 0 (at node 0)
	maximum = 0.210833 (at node 2)
Injected flit rate average = 0.00125595
	minimum = 0 (at node 166)
	maximum = 0.00266667 (at node 82)
Accepted flit rate average= 0.00125496
	minimum = 0 (at node 0)
	maximum = 0.210833 (at node 2)
Injected packet length average = 1
Accepted packet length average = 1
Total in-flight flits = 6 (6 measured)
Class 4:
Packet latency average = 46.1049
	minimum = 11
	maximum = 109
Network latency average = 46.0988
	minimum = 11
	maximum = 109
Slowest packet = 5568
Flit latency average = 40.8124
	minimum = 7
	maximum = 105
Slowest flit = 10924
Fragmentation average = 2.60494
	minimum = 0
	maximum = 6
Injected packet rate average = 0.000322421
	minimum = 0 (at node 5)
	maximum = 0.001 (at node 65)
Accepted packet rate average = 0.000325397
	minimum = 0 (at node 0)
	maximum = 0.0546667 (at node 2)
Injected flit rate average = 0.0016121
	minimum = 0 (at node 5)
	maximum = 0.005 (at node 65)
Accepted flit rate average= 0.00162897
	minimum = 0 (at node 0)
	maximum = 0.273667 (at node 2)
Injected packet length average = 5
Accepted packet length average = 5.0061
Total in-flight flits = 2 (2 measured)
latency change    = 0.00155991
throughput change = 0.000589971
latency change    = 0.000353653
throughput change = 0.00509091
latency change    = 0.00221004
throughput change = 0.0232657
latency change    = 0.00481137
throughput change = 0.00458498
latency change    = 0.0278566
throughput change = 0.0287454
Class 0:
Packet latency average = 34.5238
	minimum = 7
	maximum = 64
Network latency average = 34.5238
	minimum = 7
	maximum = 64
Slowest packet = 3337
Flit latency average = 34.5738
	minimum = 7
	maximum = 64
Slowest flit = 6629
Fragmentation average = 0
	minimum = 0
	maximum = 0
Injected packet rate average = 0.00102211
	minimum = 0 (at node 80)
	maximum = 0.00228571 (at node 13)
Accepted packet rate average = 0.00102551
	minimum = 0 (at node 0)
	maximum = 0.172286 (at node 2)
Injected flit rate average = 0.00102211
	minimum = 0 (at node 80)
	maximum = 0.00228571 (at node 13)
Accepted flit rate average= 0.00102551
	minimum = 0 (at node 0)
	maximum = 0.172286 (at node 2)
Injected packet length average = 1
Accepted packet length average = 1
Total in-flight flits = 3 (3 measured)
Class 1:
Packet latency average = 48.09
	minimum = 11
	maximum = 111
Network latency average = 48.0826
	minimum = 11
	maximum = 111
Slowest packet = 5548
Flit latency average = 42.6216
	minimum = 7
	maximum = 107
Slowest flit = 10872
Fragmentation average = 2.88039
	minimum = 0
	maximum = 5
Injected packet rate average = 0.000692177
	minimum = 0 (at node 30)
	maximum = 0.00171429 (at node 13)
Accepted packet rate average = 0.000695578
	minimum = 0 (at node 1)
	maximum = 0.116857 (at node 0)
Injected flit rate average = 0.00346088
	minimum = 0 (at node 30)
	maximum = 0.00857143 (at node 13)
Accepted flit rate average= 0.00347619
	minimum = 0 (at node 1)
	maximum = 0.584 (at node 0)
Injected packet length average = 5
Accepted packet length average = 4.99756
Total in-flight flits = 13 (13 measured)
Class 2:
Packet latency average = 34.719
	minimum = 7
	maximum = 64
Network latency average = 34.719
	minimum = 7
	maximum = 64
Slowest packet = 4331
Flit latency average = 34.7486
	minimum = 7
	maximum = 64
Slowest flit = 8635
Fragmentation average = 0
	minimum = 0
	maximum = 0
Injected packet rate average = 0.000935374
	minimum = 0.000142857 (at node 58)
	maximum = 0.002 (at node 151)
Accepted packet rate average = 0.000937075
	minimum = 0 (at node 1)
	maximum = 0.157429 (at node 0)
Injected flit rate average = 0.000935374
	minimum = 0.000142857 (at node 58)
	maximum = 0.002 (at node 151)
Accepted flit rate average= 0.000937075
	minimum = 0 (at node 1)
	maximum = 0.157429 (at node 0)
Injected packet length average = 1
Accepted packet length average = 1
Total in-flight flits = 4 (4 measured)
Class 3:
Packet latency average = 35.2327
	minimum = 7
	maximum = 64
Network latency average = 35.2327
	minimum = 7
	maximum = 64
Slowest packet = 3320
Flit latency average = 35.2596
	minimum = 7
	maximum = 64
Slowest flit = 6604
Fragmentation average = 0
	minimum = 0
	maximum = 0
Injected packet rate average = 0.00126531
	minimum = 0.000142857 (at node 166)
	maximum = 0.00257143 (at node 3)
Accepted packet rate average = 0.00126105
	minimum = 0 (at node 0)
	maximum = 0.211857 (at node 2)
Injected flit rate average = 0.00126531
	minimum = 0.000142857 (at node 166)
	maximum = 0.00257143 (at node 3)
Accepted flit rate average= 0.00126105
	minimum = 0 (at node 0)
	maximum = 0.211857 (at node 2)
Injected packet length average = 1
Accepted packet length average = 1
Total in-flight flits = 10 (10 measured)
Class 4:
Packet latency average = 46.2274
	minimum = 11
	maximum = 109
Network latency average = 46.2219
	minimum = 11
	maximum = 109
Slowest packet = 5568
Flit latency average = 40.9214
	minimum = 7
	maximum = 105
Slowest flit = 10924
Fragmentation average = 2.61096
	minimum = 0
	maximum = 6
Injected packet rate average = 0.000311224
	minimum = 0 (at node 9)
	maximum = 0.000857143 (at node 65)
Accepted packet rate average = 0.000313776
	minimum = 0 (at node 0)
	maximum = 0.0527143 (at node 2)
Injected flit rate average = 0.00155612
	minimum = 0 (at node 9)
	maximum = 0.00428571 (at node 65)
Accepted flit rate average= 0.00156803
	minimum = 0 (at node 0)
	maximum = 0.263429 (at node 2)
Injected packet length average = 5
Accepted packet length average = 4.99729
Total in-flight flits = 5 (5 measured)
latency change    = 0.0048756
throughput change = 0.0161692
latency change    = 0.0124611
throughput change = 0.0202626
latency change    = 0.006632
throughput change = 0.00801573
latency change    = 0.000321246
throughput change = 0.00483255
latency change    = 0.00264906
throughput change = 0.0388648
Draining all recorded packets ...
Draining remaining packets ...
Time taken is 10101 cycles
====== Overall Traffic Statistics ======
====== Traffic class 0 ======
Packet latency average = 34.5092 (1 samples)
	minimum = 7 (1 samples)
	maximum = 64 (1 samples)
Network latency average = 34.5092 (1 samples)
	minimum = 7 (1 samples)
	maximum = 64 (1 samples)
Flit latency average = 34.5664 (1 samples)
	minimum = 7 (1 samples)
	maximum = 64 (1 samples)
Fragmentation average = 0 (1 samples)
	minimum = 0 (1 samples)
	maximum = 0 (1 samples)
Injected packet rate average = 0.00102211 (1 samples)
	minimum = 0 (1 samples)
	maximum = 0.00228571 (1 samples)
Accepted packet rate average = 0.00102551 (1 samples)
	minimum = 0 (1 samples)
	maximum = 0.172286 (1 samples)
Injected flit rate average = 0.00102211 (1 samples)
	minimum = 0 (1 samples)
	maximum = 0.00228571 (1 samples)
Accepted flit rate average = 0.00102551 (1 samples)
	minimum = 0 (1 samples)
	maximum = 0.172286 (1 samples)
Injected packet size average = 1 (1 samples)
Accepted packet size average = 1 (1 samples)
Hops average = 6.44925 (1 samples)
====== Traffic class 1 ======
Packet latency average = 48.0946 (1 samples)
	minimum = 11 (1 samples)
	maximum = 111 (1 samples)
Network latency average = 48.0872 (1 samples)
	minimum = 11 (1 samples)
	maximum = 111 (1 samples)
Flit latency average = 42.5783 (1 samples)
	minimum = 7 (1 samples)
	maximum = 107 (1 samples)
Fragmentation average = 2.87469 (1 samples)
	minimum = 0 (1 samples)
	maximum = 5 (1 samples)
Injected packet rate average = 0.000692177 (1 samples)
	minimum = 0 (1 samples)
	maximum = 0.00171429 (1 samples)
Accepted packet rate average = 0.000695578 (1 samples)
	minimum = 0 (1 samples)
	maximum = 0.116857 (1 samples)
Injected flit rate average = 0.00346088 (1 samples)
	minimum = 0 (1 samples)
	maximum = 0.00857143 (1 samples)
Accepted flit rate average = 0.00347619 (1 samples)
	minimum = 0 (1 samples)
	maximum = 0.584 (1 samples)
Injected packet size average = 5 (1 samples)
Accepted packet size average = 4.99756 (1 samples)
Hops average = 6.57002 (1 samples)
====== Traffic class 2 ======
Packet latency average = 34.7327 (1 samples)
	minimum = 7 (1 samples)
	maximum = 64 (1 samples)
Network latency average = 34.7327 (1 samples)
	minimum = 7 (1 samples)
	maximum = 64 (1 samples)
Flit latency average = 34.8125 (1 samples)
	minimum = 7 (1 samples)
	maximum = 64 (1 samples)
Fragmentation average = 0 (1 samples)
	minimum = 0 (1 samples)
	maximum = 0 (1 samples)
Injected packet rate average = 0.000935374 (1 samples)
	minimum = 0.000142857 (1 samples)
	maximum = 0.002 (1 samples)
Accepted packet rate average = 0.000937075 (1 samples)
	minimum = 0 (1 samples)
	maximum = 0.157429 (1 samples)
Injected flit rate average = 0.000935374 (1 samples)
	minimum = 0.000142857 (1 samples)
	maximum = 0.002 (1 samples)
Accepted flit rate average = 0.000937075 (1 samples)
	minimum = 0 (1 samples)
	maximum = 0.157429 (1 samples)
Injected packet size average = 1 (1 samples)
Accepted packet size average = 1 (1 samples)
Hops average = 6.49909 (1 samples)
====== Traffic class 3 ======
Packet latency average = 35.2433 (1 samples)
	minimum = 7 (1 samples)
	maximum = 64 (1 samples)
Network latency average = 35.2433 (1 samples)
	minimum = 7 (1 samples)
	maximum = 64 (1 samples)
Flit latency average = 35.287 (1 samples)
	minimum = 7 (1 samples)
	maximum = 64 (1 samples)
Fragmentation average = 0 (1 samples)
	minimum = 0 (1 samples)
	maximum = 0 (1 samples)
Injected packet rate average = 0.00126531 (1 samples)
	minimum = 0.000142857 (1 samples)
	maximum = 0.00257143 (1 samples)
Accepted packet rate average = 0.00126105 (1 samples)
	minimum = 0 (1 samples)
	maximum = 0.211857 (1 samples)
Injected flit rate average = 0.00126531 (1 samples)
	minimum = 0.000142857 (1 samples)
	maximum = 0.00257143 (1 samples)
Accepted flit rate average = 0.00126105 (1 samples)
	minimum = 0 (1 samples)
	maximum = 0.211857 (1 samples)
Injected packet size average = 1 (1 samples)
Accepted packet size average = 1 (1 samples)
Hops average = 6.56653 (1 samples)
====== Traffic class 4 ======
Packet latency average = 46.2678 (1 samples)
	minimum = 11 (1 samples)
	maximum = 109 (1 samples)
Network latency average = 46.2623 (1 samples)
	minimum = 11 (1 samples)
	maximum = 109 (1 samples)
Flit latency average = 40.8962 (1 samples)
	minimum = 7 (1 samples)
	maximum = 105 (1 samples)
Fragmentation average = 2.60383 (1 samples)
	minimum = 0 (1 samples)
	maximum = 6 (1 samples)
Injected packet rate average = 0.000311224 (1 samples)
	minimum = 0 (1 samples)
	maximum = 0.000857143 (1 samples)
Accepted packet rate average = 0.000313776 (1 samples)
	minimum = 0 (1 samples)
	maximum = 0.0527143 (1 samples)
Injected flit rate average = 0.00155612 (1 samples)
	minimum = 0 (1 samples)
	maximum = 0.00428571 (1 samples)
Accepted flit rate average = 0.00156803 (1 samples)
	minimum = 0 (1 samples)
	maximum = 0.263429 (1 samples)
Injected packet size average = 5 (1 samples)
Accepted packet size average = 4.99729 (1 samples)
Hops average = 6.47814 (1 samples)
Total run time 0.386096
