SWEEP: Determining zero-load latency...
BEGIN Configuration File: mesh6x7config
// 6x7 (42-node) mesh built with the anynet topology.
// Standard "mesh" (k-ary n-cube) is symmetric (k^n nodes), so an
// asymmetric 6x7 grid is described explicitly via a network file.

topology     = anynet;
network_file = mesh6x7_anynet;

// Routing: anynet builds a minimal-path routing table per router.
routing_function = min;

//
// Flow control
//
num_vcs     = 8;
vc_buf_size = 8;

wait_for_tail_credit = 1;

vc_allocator = islip;
sw_allocator = islip;
alloc_iters  = 1;

credit_delay   = 2;
routing_delay  = 0;
vc_alloc_delay = 1;
sw_alloc_delay = 1;
st_final_delay = 1;

input_speedup    = 1;
output_speedup   = 1;
internal_speedup = 1.0;

//
// Traffic
//
sim_type       = latency;
traffic        = uniform;
packet_size    = 1;
use_read_write = 0;

warmup_periods = 3;
sample_period  = 1000;
sim_count      = 1;

injection_rate = 0.1;

END Configuration File: mesh6x7config
OVERRIDE Parameter: print_csv_results=1
OVERRIDE Parameter: injection_rate=0.0025
========================Network File Parsed=================
******************node listing**********************
Node 0	Router 0
Node 1	Router 1
Node 2	Router 2
Node 3	Router 3
Node 4	Router 4
Node 5	Router 5
Node 6	Router 6
Node 7	Router 7
Node 8	Router 8
Node 9	Router 9
Node 10	Router 10
Node 11	Router 11
Node 12	Router 12
Node 13	Router 13
Node 14	Router 14
Node 15	Router 15
Node 16	Router 16
Node 17	Router 17
Node 18	Router 18
Node 19	Router 19
Node 20	Router 20
Node 21	Router 21
Node 22	Router 22
Node 23	Router 23
Node 24	Router 24
Node 25	Router 25
Node 26	Router 26
Node 27	Router 27
Node 28	Router 28
Node 29	Router 29
Node 30	Router 30
Node 31	Router 31
Node 32	Router 32
Node 33	Router 33
Node 34	Router 34
Node 35	Router 35
Node 36	Router 36
Node 37	Router 37
Node 38	Router 38
Node 39	Router 39
Node 40	Router 40
Node 41	Router 41

****************router to node listing*************
Router 0
	 Node 0 lat 1
Router 1
	 Node 1 lat 1
Router 2
	 Node 2 lat 1
Router 3
	 Node 3 lat 1
Router 4
	 Node 4 lat 1
Router 5
	 Node 5 lat 1
Router 6
	 Node 6 lat 1
Router 7
	 Node 7 lat 1
Router 8
	 Node 8 lat 1
Router 9
	 Node 9 lat 1
Router 10
	 Node 10 lat 1
Router 11
	 Node 11 lat 1
Router 12
	 Node 12 lat 1
Router 13
	 Node 13 lat 1
Router 14
	 Node 14 lat 1
Router 15
	 Node 15 lat 1
Router 16
	 Node 16 lat 1
Router 17
	 Node 17 lat 1
Router 18
	 Node 18 lat 1
Router 19
	 Node 19 lat 1
Router 20
	 Node 20 lat 1
Router 21
	 Node 21 lat 1
Router 22
	 Node 22 lat 1
Router 23
	 Node 23 lat 1
Router 24
	 Node 24 lat 1
Router 25
	 Node 25 lat 1
Router 26
	 Node 26 lat 1
Router 27
	 Node 27 lat 1
Router 28
	 Node 28 lat 1
Router 29
	 Node 29 lat 1
Router 30
	 Node 30 lat 1
Router 31
	 Node 31 lat 1
Router 32
	 Node 32 lat 1
Router 33
	 Node 33 lat 1
Router 34
	 Node 34 lat 1
Router 35
	 Node 35 lat 1
Router 36
	 Node 36 lat 1
Router 37
	 Node 37 lat 1
Router 38
	 Node 38 lat 1
Router 39
	 Node 39 lat 1
Router 40
	 Node 40 lat 1
Router 41
	 Node 41 lat 1

*****************router to router listing************
Router 0
	 Router 1 lat 1
	 Router 7 lat 1
Router 1
	 Router 0 lat 1
	 Router 2 lat 1
	 Router 8 lat 1
Router 2
	 Router 1 lat 1
	 Router 3 lat 1
	 Router 9 lat 1
Router 3
	 Router 2 lat 1
	 Router 4 lat 1
	 Router 10 lat 1
Router 4
	 Router 3 lat 1
	 Router 5 lat 1
	 Router 11 lat 1
Router 5
	 Router 4 lat 1
	 Router 6 lat 1
	 Router 12 lat 1
Router 6
	 Router 5 lat 1
	 Router 13 lat 1
Router 7
	 Router 0 lat 1
	 Router 8 lat 1
	 Router 14 lat 1
Router 8
	 Router 1 lat 1
	 Router 7 lat 1
	 Router 9 lat 1
	 Router 15 lat 1
Router 9
	 Router 2 lat 1
	 Router 8 lat 1
	 Router 10 lat 1
	 Router 16 lat 1
Router 10
	 Router 3 lat 1
	 Router 9 lat 1
	 Router 11 lat 1
	 Router 17 lat 1
Router 11
	 Router 4 lat 1
	 Router 10 lat 1
	 Router 12 lat 1
	 Router 18 lat 1
Router 12
	 Router 5 lat 1
	 Router 11 lat 1
	 Router 13 lat 1
	 Router 19 lat 1
Router 13
	 Router 6 lat 1
	 Router 12 lat 1
	 Router 20 lat 1
Router 14
	 Router 7 lat 1
	 Router 15 lat 1
	 Router 21 lat 1
Router 15
	 Router 8 lat 1
	 Router 14 lat 1
	 Router 16 lat 1
	 Router 22 lat 1
Router 16
	 Router 9 lat 1
	 Router 15 lat 1
	 Router 17 lat 1
	 Router 23 lat 1
Router 17
	 Router 10 lat 1
	 Router 16 lat 1
	 Router 18 lat 1
	 Router 24 lat 1
Router 18
	 Router 11 lat 1
	 Router 17 lat 1
	 Router 19 lat 1
	 Router 25 lat 1
Router 19
	 Router 12 lat 1
	 Router 18 lat 1
	 Router 20 lat 1
	 Router 26 lat 1
Router 20
	 Router 13 lat 1
	 Router 19 lat 1
	 Router 27 lat 1
Router 21
	 Router 14 lat 1
	 Router 22 lat 1
	 Router 28 lat 1
Router 22
	 Router 15 lat 1
	 Router 21 lat 1
	 Router 23 lat 1
	 Router 29 lat 1
Router 23
	 Router 16 lat 1
	 Router 22 lat 1
	 Router 24 lat 1
	 Router 30 lat 1
Router 24
	 Router 17 lat 1
	 Router 23 lat 1
	 Router 25 lat 1
	 Router 31 lat 1
Router 25
	 Router 18 lat 1
	 Router 24 lat 1
	 Router 26 lat 1
	 Router 32 lat 1
Router 26
	 Router 19 lat 1
	 Router 25 lat 1
	 Router 27 lat 1
	 Router 33 lat 1
Router 27
	 Router 20 lat 1
	 Router 26 lat 1
	 Router 34 lat 1
Router 28
	 Router 21 lat 1
	 Router 29 lat 1
	 Router 35 lat 1
Router 29
	 Router 22 lat 1
	 Router 28 lat 1
	 Router 30 lat 1
	 Router 36 lat 1
Router 30
	 Router 23 lat 1
	 Router 29 lat 1
	 Router 31 lat 1
	 Router 37 lat 1
Router 31
	 Router 24 lat 1
	 Router 30 lat 1
	 Router 32 lat 1
	 Router 38 lat 1
Router 32
	 Router 25 lat 1
	 Router 31 lat 1
	 Router 33 lat 1
	 Router 39 lat 1
Router 33
	 Router 26 lat 1
	 Router 32 lat 1
	 Router 34 lat 1
	 Router 40 lat 1
Router 34
	 Router 27 lat 1
	 Router 33 lat 1
	 Router 41 lat 1
Router 35
	 Router 28 lat 1
	 Router 36 lat 1
Router 36
	 Router 29 lat 1
	 Router 35 lat 1
	 Router 37 lat 1
Router 37
	 Router 30 lat 1
	 Router 36 lat 1
	 Router 38 lat 1
Router 38
	 Router 31 lat 1
	 Router 37 lat 1
	 Router 39 lat 1
Router 39
	 Router 32 lat 1
	 Router 38 lat 1
	 Router 40 lat 1
Router 40
	 Router 33 lat 1
	 Router 39 lat 1
	 Router 41 lat 1
Router 41
	 Router 34 lat 1
	 Router 40 lat 1
==========================Node to Router =====================
router 0 radix 3
	 connected to node 0 at outport 0 lat 1
router 1 radix 4
	 connected to node 1 at outport 0 lat 1
router 2 radix 4
	 connected to node 2 at outport 0 lat 1
router 3 radix 4
	 connected to node 3 at outport 0 lat 1
router 4 radix 4
	 connected to node 4 at outport 0 lat 1
router 5 radix 4
	 connected to node 5 at outport 0 lat 1
router 6 radix 3
	 connected to node 6 at outport 0 lat 1
router 7 radix 4
	 connected to node 7 at outport 0 lat 1
router 8 radix 5
	 connected to node 8 at outport 0 lat 1
router 9 radix 5
	 connected to node 9 at outport 0 lat 1
router 10 radix 5
	 connected to node 10 at outport 0 lat 1
router 11 radix 5
	 connected to node 11 at outport 0 lat 1
router 12 radix 5
	 connected to node 12 at outport 0 lat 1
router 13 radix 4
	 connected to node 13 at outport 0 lat 1
router 14 radix 4
	 connected to node 14 at outport 0 lat 1
router 15 radix 5
	 connected to node 15 at outport 0 lat 1
router 16 radix 5
	 connected to node 16 at outport 0 lat 1
router 17 radix 5
	 connected to node 17 at outport 0 lat 1
router 18 radix 5
	 connected to node 18 at outport 0 lat 1
router 19 radix 5
	 connected to node 19 at outport 0 lat 1
router 20 radix 4
	 connected to node 20 at outport 0 lat 1
router 21 radix 4
	 connected to node 21 at outport 0 lat 1
router 22 radix 5
	 connected to node 22 at outport 0 lat 1
router 23 radix 5
	 connected to node 23 at outport 0 lat 1
router 24 radix 5
	 connected to node 24 at outport 0 lat 1
router 25 radix 5
	 connected to node 25 at outport 0 lat 1
router 26 radix 5
	 connected to node 26 at outport 0 lat 1
router 27 radix 4
	 connected to node 27 at outport 0 lat 1
router 28 radix 4
	 connected to node 28 at outport 0 lat 1
router 29 radix 5
	 connected to node 29 at outport 0 lat 1
router 30 radix 5
	 connected to node 30 at outport 0 lat 1
router 31 radix 5
	 connected to node 31 at outport 0 lat 1
router 32 radix 5
	 connected to node 32 at outport 0 lat 1
router 33 radix 5
	 connected to node 33 at outport 0 lat 1
router 34 radix 4
	 connected to node 34 at outport 0 lat 1
router 35 radix 3
	 connected to node 35 at outport 0 lat 1
router 36 radix 4
	 connected to node 36 at outport 0 lat 1
router 37 radix 4
	 connected to node 37 at outport 0 lat 1
router 38 radix 4
	 connected to node 38 at outport 0 lat 1
router 39 radix 4
	 connected to node 39 at outport 0 lat 1
router 40 radix 4
	 connected to node 40 at outport 0 lat 1
router 41 radix 3
	 connected to node 41 at outport 0 lat 1
==========================Router to Router =====================
router 0
	 connected to router 1 using link 0 at outport 1 lat 1
	 connected to router 7 using link 1 at outport 2 lat 1
router 1
	 connected to router 0 using link 2 at outport 1 lat 1
	 connected to router 2 using link 3 at outport 2 lat 1
	 connected to router 8 using link 4 at outport 3 lat 1
router 2
	 connected to router 1 using link 5 at outport 1 lat 1
	 connected to router 3 using link 6 at outport 2 lat 1
	 connected to router 9 using link 7 at outport 3 lat 1
router 3
	 connected to router 2 using link 8 at outport 1 lat 1
	 connected to router 4 using link 9 at outport 2 lat 1
	 connected to router 10 using link 10 at outport 3 lat 1
router 4
	 connected to router 3 using link 11 at outport 1 lat 1
	 connected to router 5 using link 12 at outport 2 lat 1
	 connected to router 11 using link 13 at outport 3 lat 1
router 5
	 connected to router 4 using link 14 at outport 1 lat 1
	 connected to router 6 using link 15 at outport 2 lat 1
	 connected to router 12 using link 16 at outport 3 lat 1
router 6
	 connected to router 5 using link 17 at outport 1 lat 1
	 connected to router 13 using link 18 at outport 2 lat 1
router 7
	 connected to router 0 using link 19 at outport 1 lat 1
	 connected to router 8 using link 20 at outport 2 lat 1
	 connected to router 14 using link 21 at outport 3 lat 1
router 8
	 connected to router 1 using link 22 at outport 1 lat 1
	 connected to router 7 using link 23 at outport 2 lat 1
	 connected to router 9 using link 24 at outport 3 lat 1
	 connected to router 15 using link 25 at outport 4 lat 1
router 9
	 connected to router 2 using link 26 at outport 1 lat 1
	 connected to router 8 using link 27 at outport 2 lat 1
	 connected to router 10 using link 28 at outport 3 lat 1
	 connected to router 16 using link 29 at outport 4 lat 1
router 10
	 connected to router 3 using link 30 at outport 1 lat 1
	 connected to router 9 using link 31 at outport 2 lat 1
	 connected to router 11 using link 32 at outport 3 lat 1
	 connected to router 17 using link 33 at outport 4 lat 1
router 11
	 connected to router 4 using link 34 at outport 1 lat 1
	 connected to router 10 using link 35 at outport 2 lat 1
	 connected to router 12 using link 36 at outport 3 lat 1
	 connected to router 18 using link 37 at outport 4 lat 1
router 12
	 connected to router 5 using link 38 at outport 1 lat 1
	 connected to router 11 using link 39 at outport 2 lat 1
	 connected to router 13 using link 40 at outport 3 lat 1
	 connected to router 19 using link 41 at outport 4 lat 1
router 13
	 connected to router 6 using link 42 at outport 1 lat 1
	 connected to router 12 using link 43 at outport 2 lat 1
	 connected to router 20 using link 44 at outport 3 lat 1
router 14
	 connected to router 7 using link 45 at outport 1 lat 1
	 connected to router 15 using link 46 at outport 2 lat 1
	 connected to router 21 using link 47 at outport 3 lat 1
router 15
	 connected to router 8 using link 48 at outport 1 lat 1
	 connected to router 14 using link 49 at outport 2 lat 1
	 connected to router 16 using link 50 at outport 3 lat 1
	 connected to router 22 using link 51 at outport 4 lat 1
router 16
	 connected to router 9 using link 52 at outport 1 lat 1
	 connected to router 15 using link 53 at outport 2 lat 1
	 connected to router 17 using link 54 at outport 3 lat 1
	 connected to router 23 using link 55 at outport 4 lat 1
router 17
	 connected to router 10 using link 56 at outport 1 lat 1
	 connected to router 16 using link 57 at outport 2 lat 1
	 connected to router 18 using link 58 at outport 3 lat 1
	 connected to router 24 using link 59 at outport 4 lat 1
router 18
	 connected to router 11 using link 60 at outport 1 lat 1
	 connected to router 17 using link 61 at outport 2 lat 1
	 connected to router 19 using link 62 at outport 3 lat 1
	 connected to router 25 using link 63 at outport 4 lat 1
router 19
	 connected to router 12 using link 64 at outport 1 lat 1
	 connected to router 18 using link 65 at outport 2 lat 1
	 connected to router 20 using link 66 at outport 3 lat 1
	 connected to router 26 using link 67 at outport 4 lat 1
router 20
	 connected to router 13 using link 68 at outport 1 lat 1
	 connected to router 19 using link 69 at outport 2 lat 1
	 connected to router 27 using link 70 at outport 3 lat 1
router 21
	 connected to router 14 using link 71 at outport 1 lat 1
	 connected to router 22 using link 72 at outport 2 lat 1
	 connected to router 28 using link 73 at outport 3 lat 1
router 22
	 connected to router 15 using link 74 at outport 1 lat 1
	 connected to router 21 using link 75 at outport 2 lat 1
	 connected to router 23 using link 76 at outport 3 lat 1
	 connected to router 29 using link 77 at outport 4 lat 1
router 23
	 connected to router 16 using link 78 at outport 1 lat 1
	 connected to router 22 using link 79 at outport 2 lat 1
	 connected to router 24 using link 80 at outport 3 lat 1
	 connected to router 30 using link 81 at outport 4 lat 1
router 24
	 connected to router 17 using link 82 at outport 1 lat 1
	 connected to router 23 using link 83 at outport 2 lat 1
	 connected to router 25 using link 84 at outport 3 lat 1
	 connected to router 31 using link 85 at outport 4 lat 1
router 25
	 connected to router 18 using link 86 at outport 1 lat 1
	 connected to router 24 using link 87 at outport 2 lat 1
	 connected to router 26 using link 88 at outport 3 lat 1
	 connected to router 32 using link 89 at outport 4 lat 1
router 26
	 connected to router 19 using link 90 at outport 1 lat 1
	 connected to router 25 using link 91 at outport 2 lat 1
	 connected to router 27 using link 92 at outport 3 lat 1
	 connected to router 33 using link 93 at outport 4 lat 1
router 27
	 connected to router 20 using link 94 at outport 1 lat 1
	 connected to router 26 using link 95 at outport 2 lat 1
	 connected to router 34 using link 96 at outport 3 lat 1
router 28
	 connected to router 21 using link 97 at outport 1 lat 1
	 connected to router 29 using link 98 at outport 2 lat 1
	 connected to router 35 using link 99 at outport 3 lat 1
router 29
	 connected to router 22 using link 100 at outport 1 lat 1
	 connected to router 28 using link 101 at outport 2 lat 1
	 connected to router 30 using link 102 at outport 3 lat 1
	 connected to router 36 using link 103 at outport 4 lat 1
router 30
	 connected to router 23 using link 104 at outport 1 lat 1
	 connected to router 29 using link 105 at outport 2 lat 1
	 connected to router 31 using link 106 at outport 3 lat 1
	 connected to router 37 using link 107 at outport 4 lat 1
router 31
	 connected to router 24 using link 108 at outport 1 lat 1
	 connected to router 30 using link 109 at outport 2 lat 1
	 connected to router 32 using link 110 at outport 3 lat 1
	 connected to router 38 using link 111 at outport 4 lat 1
router 32
	 connected to router 25 using link 112 at outport 1 lat 1
	 connected to router 31 using link 113 at outport 2 lat 1
	 connected to router 33 using link 114 at outport 3 lat 1
	 connected to router 39 using link 115 at outport 4 lat 1
router 33
	 connected to router 26 using link 116 at outport 1 lat 1
	 connected to router 32 using link 117 at outport 2 lat 1
	 connected to router 34 using link 118 at outport 3 lat 1
	 connected to router 40 using link 119 at outport 4 lat 1
router 34
	 connected to router 27 using link 120 at outport 1 lat 1
	 connected to router 33 using link 121 at outport 2 lat 1
	 connected to router 41 using link 122 at outport 3 lat 1
router 35
	 connected to router 28 using link 123 at outport 1 lat 1
	 connected to router 36 using link 124 at outport 2 lat 1
router 36
	 connected to router 29 using link 125 at outport 1 lat 1
	 connected to router 35 using link 126 at outport 2 lat 1
	 connected to router 37 using link 127 at outport 3 lat 1
router 37
	 connected to router 30 using link 128 at outport 1 lat 1
	 connected to router 36 using link 129 at outport 2 lat 1
	 connected to router 38 using link 130 at outport 3 lat 1
router 38
	 connected to router 31 using link 131 at outport 1 lat 1
	 connected to router 37 using link 132 at outport 2 lat 1
	 connected to router 39 using link 133 at outport 3 lat 1
router 39
	 connected to router 32 using link 134 at outport 1 lat 1
	 connected to router 38 using link 135 at outport 2 lat 1
	 connected to router 40 using link 136 at outport 3 lat 1
router 40
	 connected to router 33 using link 137 at outport 1 lat 1
	 connected to router 39 using link 138 at outport 2 lat 1
	 connected to router 41 using link 139 at outport 3 lat 1
router 41
	 connected to router 34 using link 140 at outport 1 lat 1
	 connected to router 40 using link 141 at outport 2 lat 1
========================== Routing table  =====================
Class 0:
Packet latency average = 22.4227
	minimum = 6
	maximum = 46
Network latency average = 22.4227
	minimum = 6
	maximum = 46
Slowest packet = 71
Flit latency average = 22.4227
	minimum = 6
	maximum = 46
Slowest flit = 71
Fragmentation average = 0
	minimum = 0
	maximum = 0
Injected packet rate average = 0.00247619
	minimum = 0 (at node 1)
	maximum = 0.006 (at node 0)
Accepted packet rate average = 0.00230952
	minimum = 0 (at node 19)
	maximum = 0.006 (at node 27)
Injected flit rate average = 0.00247619
	minimum = 0 (at node 1)
	maximum = 0.006 (at node 0)
Accepted flit rate average= 0.00230952
	minimum = 0 (at node 19)
	maximum = 0.006 (at node 27)
Injected packet length average = 1
Accepted packet length average = 1
Total in-flight flits = 7 (0 measured)
latency change    = 1
throughput change = 1
Class 0:
Packet latency average = 22.6684
	minimum = 6
	maximum = 46
Network latency average = 22.6684
	minimum = 6
	maximum = 46
Slowest packet = 71
Flit latency average = 22.6684
	minimum = 6
	maximum = 46
Slowest flit = 71
Fragmentation average = 0
	minimum = 0
	maximum = 0
Injected packet rate average = 0.0022381
	minimum = 0 (at node 1)
	maximum = 0.004 (at node 0)
Accepted packet rate average = 0.00222619
	minimum = 0 (at node 25)
	maximum = 0.0045 (at node 2)
Injected flit rate average = 0.0022381
	minimum = 0 (at node 1)
	maximum = 0.004 (at node 0)
Accepted flit rate average= 0.00222619
	minimum = 0 (at node 25)
	maximum = 0.0045 (at node 2)
Injected packet length average = 1
Accepted packet length average = 1
Total in-flight flits = 1 (0 measured)
latency change    = 0.0108419
throughput change = 0.0374332
Class 0:
Packet latency average = 22.0374
	minimum = 6
	maximum = 46
Network latency average = 22.0374
	minimum = 6
	maximum = 46
Slowest packet = 210
Flit latency average = 22.0374
	minimum = 6
	maximum = 46
Slowest flit = 210
Fragmentation average = 0
	minimum = 0
	maximum = 0
Injected packet rate average = 0.00254762
	minimum = 0 (at node 8)
	maximum = 0.008 (at node 39)
Accepted packet rate average = 0.00254762
	minimum = 0 (at node 10)
	maximum = 0.006 (at node 26)
Injected flit rate average = 0.00254762
	minimum = 0 (at node 8)
	maximum = 0.008 (at node 39)
Accepted flit rate average= 0.00254762
	minimum = 0 (at node 10)
	maximum = 0.006 (at node 26)
Injected packet length average = 1
Accepted packet length average = 1
Total in-flight flits = 1 (0 measured)
latency change    = 0.0286362
throughput change = 0.126168
Warmed up ...Time used is 3000 cycles
Class 0:
Packet latency average = 21.4742
	minimum = 6
	maximum = 38
Network latency average = 21.4742
	minimum = 6
	maximum = 38
Slowest packet = 309
Flit latency average = 21.4388
	minimum = 6
	maximum = 38
Slowest flit = 309
Fragmentation average = 0
	minimum = 0
	maximum = 0
Injected packet rate average = 0.00233333
	minimum = 0 (at node 0)
	maximum = 0.006 (at node 15)
Accepted packet rate average = 0.00233333
	minimum = 0 (at node 4)
	maximum = 0.006 (at node 0)
Injected flit rate average = 0.00233333
	minimum = 0 (at node 0)
	maximum = 0.006 (at node 15)
Accepted flit rate average= 0.00233333
	minimum = 0 (at node 4)
	maximum = 0.006 (at node 0)
Injected packet length average = 1
Accepted packet length average = 1
Total in-flight flits = 1 (1 measured)
latency change    = 0.0262248
throughput change = 0.0918367
Class 0:
Packet latency average = 22.3204
	minimum = 6
	maximum = 46
Network latency average = 22.3204
	minimum = 6
	maximum = 46
Slowest packet = 410
Flit latency average = 22.2995
	minimum = 6
	maximum = 46
Slowest flit = 410
Fragmentation average = 0
	minimum = 0
	maximum = 0
Injected packet rate average = 0.0024881
	minimum = 0 (at node 22)
	maximum = 0.0055 (at node 6)
Accepted packet rate average = 0.00246429
	minimum = 0.0005 (at node 6)
	maximum = 0.0055 (at node 29)
Injected flit rate average = 0.0024881
	minimum = 0 (at node 22)
	maximum = 0.0055 (at node 6)
Accepted flit rate average= 0.00246429
	minimum = 0.0005 (at node 6)
	maximum = 0.0055 (at node 29)
Injected packet length average = 1
Accepted packet length average = 1
Total in-flight flits = 3 (3 measured)
latency change    = 0.0379098
throughput change = 0.0531401
Class 0:
Packet latency average = 22.0818
	minimum = 6
	maximum = 46
Network latency average = 22.0818
	minimum = 6
	maximum = 46
Slowest packet = 410
Flit latency average = 22.069
	minimum = 6
	maximum = 46
Slowest flit = 410
Fragmentation average = 0
	minimum = 0
	maximum = 0
Injected packet rate average = 0.00257143
	minimum = 0.000666667 (at node 17)
	maximum = 0.00433333 (at node 6)
Accepted packet rate average = 0.00253175
	minimum = 0.000333333 (at node 6)
	maximum = 0.005 (at node 31)
Injected flit rate average = 0.00257143
	minimum = 0.000666667 (at node 17)
	maximum = 0.00433333 (at node 6)
Accepted flit rate average= 0.00253175
	minimum = 0.000333333 (at node 6)
	maximum = 0.005 (at node 31)
Injected packet length average = 1
Accepted packet length average = 1
Total in-flight flits = 6 (6 measured)
latency change    = 0.0108065
throughput change = 0.0266458
Class 0:
Packet latency average = 22.2049
	minimum = 6
	maximum = 46
Network latency average = 22.2049
	minimum = 6
	maximum = 46
Slowest packet = 410
Flit latency average = 22.1946
	minimum = 6
	maximum = 46
Slowest flit = 410
Fragmentation average = 0
	minimum = 0
	maximum = 0
Injected packet rate average = 0.00245833
	minimum = 0.00075 (at node 17)
	maximum = 0.00375 (at node 6)
Accepted packet rate average = 0.00244643
	minimum = 0.00075 (at node 6)
	maximum = 0.004 (at node 16)
Injected flit rate average = 0.00245833
	minimum = 0.00075 (at node 17)
	maximum = 0.00375 (at node 6)
Accepted flit rate average= 0.00244643
	minimum = 0.00075 (at node 6)
	maximum = 0.004 (at node 16)
Injected packet length average = 1
Accepted packet length average = 1
Total in-flight flits = 3 (3 measured)
latency change    = 0.00554459
throughput change = 0.0348743
Class 0:
Packet latency average = 22.065
	minimum = 6
	maximum = 46
Network latency average = 22.065
	minimum = 6
	maximum = 46
Slowest packet = 410
Flit latency average = 22.057
	minimum = 6
	maximum = 46
Slowest flit = 410
Fragmentation average = 0
	minimum = 0
	maximum = 0
Injected packet rate average = 0.00242381
	minimum = 0.001 (at node 17)
	maximum = 0.0036 (at node 36)
Accepted packet rate average = 0.00242381
	minimum = 0.0008 (at node 11)
	maximum = 0.0044 (at node 16)
Injected flit rate average = 0.00242381
	minimum = 0.001 (at node 17)
	maximum = 0.0036 (at node 36)
Accepted flit rate average= 0.00242381
	minimum = 0.0008 (at node 11)
	maximum = 0.0044 (at node 16)
Injected packet length average = 1
Accepted packet length average = 1
Total in-flight flits = 1 (1 measured)
latency change    = 0.00634116
throughput change = 0.00933202
Draining all recorded packets ...
Draining remaining packets ...
Time taken is 8009 cycles
====== Overall Traffic Statistics ======
====== Traffic class 0 ======
Packet latency average = 22.0806 (1 samples)
	minimum = 6 (1 samples)
	maximum = 46 (1 samples)
Network latency average = 22.0806 (1 samples)
	minimum = 6 (1 samples)
	maximum = 46 (1 samples)
Flit latency average = 22.0725 (1 samples)
	minimum = 6 (1 samples)
	maximum = 46 (1 samples)
Fragmentation average = 0 (1 samples)
	minimum = 0 (1 samples)
	maximum = 0 (1 samples)
Injected packet rate average = 0.00242381 (1 samples)
	minimum = 0.001 (1 samples)
	maximum = 0.0036 (1 samples)
Accepted packet rate average = 0.00242381 (1 samples)
	minimum = 0.0008 (1 samples)
	maximum = 0.0044 (1 samples)
Injected flit rate average = 0.00242381 (1 samples)
	minimum = 0.001 (1 samples)
	maximum = 0.0036 (1 samples)
Accepted flit rate average = 0.00242381 (1 samples)
	minimum = 0.0008 (1 samples)
	maximum = 0.0044 (1 samples)
Injected packet size average = 1 (1 samples)
Accepted packet size average = 1 (1 samples)
Hops average = 5.01768 (1 samples)
results:0,uniform,0,0.0025,6,22.0806,46,6,22.0806,46,6,22.0725,46,0,0,0,0.001,0.00242381,0.0036,0.0008,0.00242381,0.0044,0.001,0.00242381,0.0036,0.0008,0.00242381,0.0044,1,1,5.01768
Total run time 0.038188
SWEEP: Simulation run succeeded.
SWEEP: Zero-load latency is 22.0806.
SWEEP: Sweeping with initial step size 0.05
SWEEP: Simulating for injection rate 0.05...
BEGIN Configuration File: mesh6x7config
// 6x7 (42-node) mesh built with the anynet topology.
// Standard "mesh" (k-ary n-cube) is symmetric (k^n nodes), so an
// asymmetric 6x7 grid is described explicitly via a network file.

topology     = anynet;
network_file = mesh6x7_anynet;

// Routing: anynet builds a minimal-path routing table per router.
routing_function = min;

//
// Flow control
//
num_vcs     = 8;
vc_buf_size = 8;

wait_for_tail_credit = 1;

vc_allocator = islip;
sw_allocator = islip;
alloc_iters  = 1;

credit_delay   = 2;
routing_delay  = 0;
vc_alloc_delay = 1;
sw_alloc_delay = 1;
st_final_delay = 1;

input_speedup    = 1;
output_speedup   = 1;
internal_speedup = 1.0;

//
// Traffic
//
sim_type       = latency;
traffic        = uniform;
packet_size    = 1;
use_read_write = 0;

warmup_periods = 3;
sample_period  = 1000;
sim_count      = 1;

injection_rate = 0.1;

END Configuration File: mesh6x7config
OVERRIDE Parameter: print_csv_results=1
OVERRIDE Parameter: injection_rate=0.05
========================Network File Parsed=================
******************node listing**********************
Node 0	Router 0
Node 1	Router 1
Node 2	Router 2
Node 3	Router 3
Node 4	Router 4
Node 5	Router 5
Node 6	Router 6
Node 7	Router 7
Node 8	Router 8
Node 9	Router 9
Node 10	Router 10
Node 11	Router 11
Node 12	Router 12
Node 13	Router 13
Node 14	Router 14
Node 15	Router 15
Node 16	Router 16
Node 17	Router 17
Node 18	Router 18
Node 19	Router 19
Node 20	Router 20
Node 21	Router 21
Node 22	Router 22
Node 23	Router 23
Node 24	Router 24
Node 25	Router 25
Node 26	Router 26
Node 27	Router 27
Node 28	Router 28
Node 29	Router 29
Node 30	Router 30
Node 31	Router 31
Node 32	Router 32
Node 33	Router 33
Node 34	Router 34
Node 35	Router 35
Node 36	Router 36
Node 37	Router 37
Node 38	Router 38
Node 39	Router 39
Node 40	Router 40
Node 41	Router 41

****************router to node listing*************
Router 0
	 Node 0 lat 1
Router 1
	 Node 1 lat 1
Router 2
	 Node 2 lat 1
Router 3
	 Node 3 lat 1
Router 4
	 Node 4 lat 1
Router 5
	 Node 5 lat 1
Router 6
	 Node 6 lat 1
Router 7
	 Node 7 lat 1
Router 8
	 Node 8 lat 1
Router 9
	 Node 9 lat 1
Router 10
	 Node 10 lat 1
Router 11
	 Node 11 lat 1
Router 12
	 Node 12 lat 1
Router 13
	 Node 13 lat 1
Router 14
	 Node 14 lat 1
Router 15
	 Node 15 lat 1
Router 16
	 Node 16 lat 1
Router 17
	 Node 17 lat 1
Router 18
	 Node 18 lat 1
Router 19
	 Node 19 lat 1
Router 20
	 Node 20 lat 1
Router 21
	 Node 21 lat 1
Router 22
	 Node 22 lat 1
Router 23
	 Node 23 lat 1
Router 24
	 Node 24 lat 1
Router 25
	 Node 25 lat 1
Router 26
	 Node 26 lat 1
Router 27
	 Node 27 lat 1
Router 28
	 Node 28 lat 1
Router 29
	 Node 29 lat 1
Router 30
	 Node 30 lat 1
Router 31
	 Node 31 lat 1
Router 32
	 Node 32 lat 1
Router 33
	 Node 33 lat 1
Router 34
	 Node 34 lat 1
Router 35
	 Node 35 lat 1
Router 36
	 Node 36 lat 1
Router 37
	 Node 37 lat 1
Router 38
	 Node 38 lat 1
Router 39
	 Node 39 lat 1
Router 40
	 Node 40 lat 1
Router 41
	 Node 41 lat 1

*****************router to router listing************
Router 0
	 Router 1 lat 1
	 Router 7 lat 1
Router 1
	 Router 0 lat 1
	 Router 2 lat 1
	 Router 8 lat 1
Router 2
	 Router 1 lat 1
	 Router 3 lat 1
	 Router 9 lat 1
Router 3
	 Router 2 lat 1
	 Router 4 lat 1
	 Router 10 lat 1
Router 4
	 Router 3 lat 1
	 Router 5 lat 1
	 Router 11 lat 1
Router 5
	 Router 4 lat 1
	 Router 6 lat 1
	 Router 12 lat 1
Router 6
	 Router 5 lat 1
	 Router 13 lat 1
Router 7
	 Router 0 lat 1
	 Router 8 lat 1
	 Router 14 lat 1
Router 8
	 Router 1 lat 1
	 Router 7 lat 1
	 Router 9 lat 1
	 Router 15 lat 1
Router 9
	 Router 2 lat 1
	 Router 8 lat 1
	 Router 10 lat 1
	 Router 16 lat 1
Router 10
	 Router 3 lat 1
	 Router 9 lat 1
	 Router 11 lat 1
	 Router 17 lat 1
Router 11
	 Router 4 lat 1
	 Router 10 lat 1
	 Router 12 lat 1
	 Router 18 lat 1
Router 12
	 Router 5 lat 1
	 Router 11 lat 1
	 Router 13 lat 1
	 Router 19 lat 1
Router 13
	 Router 6 lat 1
	 Router 12 lat 1
	 Router 20 lat 1
Router 14
	 Router 7 lat 1
	 Router 15 lat 1
	 Router 21 lat 1
Router 15
	 Router 8 lat 1
	 Router 14 lat 1
	 Router 16 lat 1
	 Router 22 lat 1
Router 16
	 Router 9 lat 1
	 Router 15 lat 1
	 Router 17 lat 1
	 Router 23 lat 1
Router 17
	 Router 10 lat 1
	 Router 16 lat 1
	 Router 18 lat 1
	 Router 24 lat 1
Router 18
	 Router 11 lat 1
	 Router 17 lat 1
	 Router 19 lat 1
	 Router 25 lat 1
Router 19
	 Router 12 lat 1
	 Router 18 lat 1
	 Router 20 lat 1
	 Router 26 lat 1
Router 20
	 Router 13 lat 1
	 Router 19 lat 1
	 Router 27 lat 1
Router 21
	 Router 14 lat 1
	 Router 22 lat 1
	 Router 28 lat 1
Router 22
	 Router 15 lat 1
	 Router 21 lat 1
	 Router 23 lat 1
	 Router 29 lat 1
Router 23
	 Router 16 lat 1
	 Router 22 lat 1
	 Router 24 lat 1
	 Router 30 lat 1
Router 24
	 Router 17 lat 1
	 Router 23 lat 1
	 Router 25 lat 1
	 Router 31 lat 1
Router 25
	 Router 18 lat 1
	 Router 24 lat 1
	 Router 26 lat 1
	 Router 32 lat 1
Router 26
	 Router 19 lat 1
	 Router 25 lat 1
	 Router 27 lat 1
	 Router 33 lat 1
Router 27
	 Router 20 lat 1
	 Router 26 lat 1
	 Router 34 lat 1
Router 28
	 Router 21 lat 1
	 Router 29 lat 1
	 Router 35 lat 1
Router 29
	 Router 22 lat 1
	 Router 28 lat 1
	 Router 30 lat 1
	 Router 36 lat 1
Router 30
	 Router 23 lat 1
	 Router 29 lat 1
	 Router 31 lat 1
	 Router 37 lat 1
Router 31
	 Router 24 lat 1
	 Router 30 lat 1
	 Router 32 lat 1
	 Router 38 lat 1
Router 32
	 Router 25 lat 1
	 Router 31 lat 1
	 Router 33 lat 1
	 Router 39 lat 1
Router 33
	 Router 26 lat 1
	 Router 32 lat 1
	 Router 34 lat 1
	 Router 40 lat 1
Router 34
	 Router 27 lat 1
	 Router 33 lat 1
	 Router 41 lat 1
Router 35
	 Router 28 lat 1
	 Router 36 lat 1
Router 36
	 Router 29 lat 1
	 Router 35 lat 1
	 Router 37 lat 1
Router 37
	 Router 30 lat 1
	 Router 36 lat 1
	 Router 38 lat 1
Router 38
	 Router 31 lat 1
	 Router 37 lat 1
	 Router 39 lat 1
Router 39
	 Router 32 lat 1
	 Router 38 lat 1
	 Router 40 lat 1
Router 40
	 Router 33 lat 1
	 Router 39 lat 1
	 Router 41 lat 1
Router 41
	 Router 34 lat 1
	 Router 40 lat 1
==========================Node to Router =====================
router 0 radix 3
	 connected to node 0 at outport 0 lat 1
router 1 radix 4
	 connected to node 1 at outport 0 lat 1
router 2 radix 4
	 connected to node 2 at outport 0 lat 1
router 3 radix 4
	 connected to node 3 at outport 0 lat 1
router 4 radix 4
	 connected to node 4 at outport 0 lat 1
router 5 radix 4
	 connected to node 5 at outport 0 lat 1
router 6 radix 3
	 connected to node 6 at outport 0 lat 1
router 7 radix 4
	 connected to node 7 at outport 0 lat 1
router 8 radix 5
	 connected to node 8 at outport 0 lat 1
router 9 radix 5
	 connected to node 9 at outport 0 lat 1
router 10 radix 5
	 connected to node 10 at outport 0 lat 1
router 11 radix 5
	 connected to node 11 at outport 0 lat 1
router 12 radix 5
	 connected to node 12 at outport 0 lat 1
router 13 radix 4
	 connected to node 13 at outport 0 lat 1
router 14 radix 4
	 connected to node 14 at outport 0 lat 1
router 15 radix 5
	 connected to node 15 at outport 0 lat 1
router 16 radix 5
	 connected to node 16 at outport 0 lat 1
router 17 radix 5
	 connected to node 17 at outport 0 lat 1
router 18 radix 5
	 connected to node 18 at outport 0 lat 1
router 19 radix 5
	 connected to node 19 at outport 0 lat 1
router 20 radix 4
	 connected to node 20 at outport 0 lat 1
router 21 radix 4
	 connected to node 21 at outport 0 lat 1
router 22 radix 5
	 connected to node 22 at outport 0 lat 1
router 23 radix 5
	 connected to node 23 at outport 0 lat 1
router 24 radix 5
	 connected to node 24 at outport 0 lat 1
router 25 radix 5
	 connected to node 25 at outport 0 lat 1
router 26 radix 5
	 connected to node 26 at outport 0 lat 1
router 27 radix 4
	 connected to node 27 at outport 0 lat 1
router 28 radix 4
	 connected to node 28 at outport 0 lat 1
router 29 radix 5
	 connected to node 29 at outport 0 lat 1
router 30 radix 5
	 connected to node 30 at outport 0 lat 1
router 31 radix 5
	 connected to node 31 at outport 0 lat 1
router 32 radix 5
	 connected to node 32 at outport 0 lat 1
router 33 radix 5
	 connected to node 33 at outport 0 lat 1
router 34 radix 4
	 connected to node 34 at outport 0 lat 1
router 35 radix 3
	 connected to node 35 at outport 0 lat 1
router 36 radix 4
	 connected to node 36 at outport 0 lat 1
router 37 radix 4
	 connected to node 37 at outport 0 lat 1
router 38 radix 4
	 connected to node 38 at outport 0 lat 1
router 39 radix 4
	 connected to node 39 at outport 0 lat 1
router 40 radix 4
	 connected to node 40 at outport 0 lat 1
router 41 radix 3
	 connected to node 41 at outport 0 lat 1
==========================Router to Router =====================
router 0
	 connected to router 1 using link 0 at outport 1 lat 1
	 connected to router 7 using link 1 at outport 2 lat 1
router 1
	 connected to router 0 using link 2 at outport 1 lat 1
	 connected to router 2 using link 3 at outport 2 lat 1
	 connected to router 8 using link 4 at outport 3 lat 1
router 2
	 connected to router 1 using link 5 at outport 1 lat 1
	 connected to router 3 using link 6 at outport 2 lat 1
	 connected to router 9 using link 7 at outport 3 lat 1
router 3
	 connected to router 2 using link 8 at outport 1 lat 1
	 connected to router 4 using link 9 at outport 2 lat 1
	 connected to router 10 using link 10 at outport 3 lat 1
router 4
	 connected to router 3 using link 11 at outport 1 lat 1
	 connected to router 5 using link 12 at outport 2 lat 1
	 connected to router 11 using link 13 at outport 3 lat 1
router 5
	 connected to router 4 using link 14 at outport 1 lat 1
	 connected to router 6 using link 15 at outport 2 lat 1
	 connected to router 12 using link 16 at outport 3 lat 1
router 6
	 connected to router 5 using link 17 at outport 1 lat 1
	 connected to router 13 using link 18 at outport 2 lat 1
router 7
	 connected to router 0 using link 19 at outport 1 lat 1
	 connected to router 8 using link 20 at outport 2 lat 1
	 connected to router 14 using link 21 at outport 3 lat 1
router 8
	 connected to router 1 using link 22 at outport 1 lat 1
	 connected to router 7 using link 23 at outport 2 lat 1
	 connected to router 9 using link 24 at outport 3 lat 1
	 connected to router 15 using link 25 at outport 4 lat 1
router 9
	 connected to router 2 using link 26 at outport 1 lat 1
	 connected to router 8 using link 27 at outport 2 lat 1
	 connected to router 10 using link 28 at outport 3 lat 1
	 connected to router 16 using link 29 at outport 4 lat 1
router 10
	 connected to router 3 using link 30 at outport 1 lat 1
	 connected to router 9 using link 31 at outport 2 lat 1
	 connected to router 11 using link 32 at outport 3 lat 1
	 connected to router 17 using link 33 at outport 4 lat 1
router 11
	 connected to router 4 using link 34 at outport 1 lat 1
	 connected to router 10 using link 35 at outport 2 lat 1
	 connected to router 12 using link 36 at outport 3 lat 1
	 connected to router 18 using link 37 at outport 4 lat 1
router 12
	 connected to router 5 using link 38 at outport 1 lat 1
	 connected to router 11 using link 39 at outport 2 lat 1
	 connected to router 13 using link 40 at outport 3 lat 1
	 connected to router 19 using link 41 at outport 4 lat 1
router 13
	 connected to router 6 using link 42 at outport 1 lat 1
	 connected to router 12 using link 43 at outport 2 lat 1
	 connected to router 20 using link 44 at outport 3 lat 1
router 14
	 connected to router 7 using link 45 at outport 1 lat 1
	 connected to router 15 using link 46 at outport 2 lat 1
	 connected to router 21 using link 47 at outport 3 lat 1
router 15
	 connected to router 8 using link 48 at outport 1 lat 1
	 connected to router 14 using link 49 at outport 2 lat 1
	 connected to router 16 using link 50 at outport 3 lat 1
	 connected to router 22 using link 51 at outport 4 lat 1
router 16
	 connected to router 9 using link 52 at outport 1 lat 1
	 connected to router 15 using link 53 at outport 2 lat 1
	 connected to router 17 using link 54 at outport 3 lat 1
	 connected to router 23 using link 55 at outport 4 lat 1
router 17
	 connected to router 10 using link 56 at outport 1 lat 1
	 connected to router 16 using link 57 at outport 2 lat 1
	 connected to router 18 using link 58 at outport 3 lat 1
	 connected to router 24 using link 59 at outport 4 lat 1
router 18
	 connected to router 11 using link 60 at outport 1 lat 1
	 connected to router 17 using link 61 at outport 2 lat 1
	 connected to router 19 using link 62 at outport 3 lat 1
	 connected to router 25 using link 63 at outport 4 lat 1
router 19
	 connected to router 12 using link 64 at outport 1 lat 1
	 connected to router 18 using link 65 at outport 2 lat 1
	 connected to router 20 using link 66 at outport 3 lat 1
	 connected to router 26 using link 67 at outport 4 lat 1
router 20
	 connected to router 13 using link 68 at outport 1 lat 1
	 connected to router 19 using link 69 at outport 2 lat 1
	 connected to router 27 using link 70 at outport 3 lat 1
router 21
	 connected to router 14 using link 71 at outport 1 lat 1
	 connected to router 22 using link 72 at outport 2 lat 1
	 connected to router 28 using link 73 at outport 3 lat 1
router 22
	 connected to router 15 using link 74 at outport 1 lat 1
	 connected to router 21 using link 75 at outport 2 lat 1
	 connected to router 23 using link 76 at outport 3 lat 1
	 connected to router 29 using link 77 at outport 4 lat 1
router 23
	 connected to router 16 using link 78 at outport 1 lat 1
	 connected to router 22 using link 79 at outport 2 lat 1
	 connected to router 24 using link 80 at outport 3 lat 1
	 connected to router 30 using link 81 at outport 4 lat 1
router 24
	 connected to router 17 using link 82 at outport 1 lat 1
	 connected to router 23 using link 83 at outport 2 lat 1
	 connected to router 25 using link 84 at outport 3 lat 1
	 connected to router 31 using link 85 at outport 4 lat 1
router 25
	 connected to router 18 using link 86 at outport 1 lat 1
	 connected to router 24 using link 87 at outport 2 lat 1
	 connected to router 26 using link 88 at outport 3 lat 1
	 connected to router 32 using link 89 at outport 4 lat 1
router 26
	 connected to router 19 using link 90 at outport 1 lat 1
	 connected to router 25 using link 91 at outport 2 lat 1
	 connected to router 27 using link 92 at outport 3 lat 1
	 connected to router 33 using link 93 at outport 4 lat 1
router 27
	 connected to router 20 using link 94 at outport 1 lat 1
	 connected to router 26 using link 95 at outport 2 lat 1
	 connected to router 34 using link 96 at outport 3 lat 1
router 28
	 connected to router 21 using link 97 at outport 1 lat 1
	 connected to router 29 using link 98 at outport 2 lat 1
	 connected to router 35 using link 99 at outport 3 lat 1
router 29
	 connected to router 22 using link 100 at outport 1 lat 1
	 connected to router 28 using link 101 at outport 2 lat 1
	 connected to router 30 using link 102 at outport 3 lat 1
	 connected to router 36 using link 103 at outport 4 lat 1
router 30
	 connected to router 23 using link 104 at outport 1 lat 1
	 connected to router 29 using link 105 at outport 2 lat 1
	 connected to router 31 using link 106 at outport 3 lat 1
	 connected to router 37 using link 107 at outport 4 lat 1
router 31
	 connected to router 24 using link 108 at outport 1 lat 1
	 connected to router 30 using link 109 at outport 2 lat 1
	 connected to router 32 using link 110 at outport 3 lat 1
	 connected to router 38 using link 111 at outport 4 lat 1
router 32
	 connected to router 25 using link 112 at outport 1 lat 1
	 connected to router 31 using link 113 at outport 2 lat 1
	 connected to router 33 using link 114 at outport 3 lat 1
	 connected to router 39 using link 115 at outport 4 lat 1
router 33
	 connected to router 26 using link 116 at outport 1 lat 1
	 connected to router 32 using link 117 at outport 2 lat 1
	 connected to router 34 using link 118 at outport 3 lat 1
	 connected to router 40 using link 119 at outport 4 lat 1
router 34
	 connected to router 27 using link 120 at outport 1 lat 1
	 connected to router 33 using link 121 at outport 2 lat 1
	 connected to router 41 using link 122 at outport 3 lat 1
router 35
	 connected to router 28 using link 123 at outport 1 lat 1
	 connected to router 36 using link 124 at outport 2 lat 1
router 36
	 connected to router 29 using link 125 at outport 1 lat 1
	 connected to router 35 using link 126 at outport 2 lat 1
	 connected to router 37 using link 127 at outport 3 lat 1
router 37
	 connected to router 30 using link 128 at outport 1 lat 1
	 connected to router 36 using link 129 at outport 2 lat 1
	 connected to router 38 using link 130 at outport 3 lat 1
router 38
	 connected to router 31 using link 131 at outport 1 lat 1
	 connected to router 37 using link 132 at outport 2 lat 1
	 connected to router 39 using link 133 at outport 3 lat 1
router 39
	 connected to router 32 using link 134 at outport 1 lat 1
	 connected to router 38 using link 135 at outport 2 lat 1
	 connected to router 40 using link 136 at outport 3 lat 1
router 40
	 connected to router 33 using link 137 at outport 1 lat 1
	 connected to router 39 using link 138 at outport 2 lat 1
	 connected to router 41 using link 139 at outport 3 lat 1
router 41
	 connected to router 34 using link 140 at outport 1 lat 1
	 connected to router 40 using link 141 at outport 2 lat 1
========================== Routing table  =====================
Class 0:
Packet latency average = 22.5467
	minimum = 6
	maximum = 51
Network latency average = 22.5467
	minimum = 6
	maximum = 51
Slowest packet = 601
Flit latency average = 22.5467
	minimum = 6
	maximum = 51
Slowest flit = 601
Fragmentation average = 0
	minimum = 0
	maximum = 0
Injected packet rate average = 0.0499762
	minimum = 0.033 (at node 16)
	maximum = 0.067 (at node 10)
Accepted packet rate average = 0.0487381
	minimum = 0.035 (at node 22)
	maximum = 0.065 (at node 16)
Injected flit rate average = 0.0499762
	minimum = 0.033 (at node 16)
	maximum = 0.067 (at node 10)
Accepted flit rate average= 0.0487381
	minimum = 0.035 (at node 22)
	maximum = 0.065 (at node 16)
Injected packet length average = 1
Accepted packet length average = 1
Total in-flight flits = 52 (0 measured)
latency change    = 1
throughput change = 1
Class 0:
Packet latency average = 22.561
	minimum = 6
	maximum = 51
Network latency average = 22.561
	minimum = 6
	maximum = 51
Slowest packet = 601
Flit latency average = 22.561
	minimum = 6
	maximum = 51
Slowest flit = 601
Fragmentation average = 0
	minimum = 0
	maximum = 0
Injected packet rate average = 0.0490952
	minimum = 0.038 (at node 22)
	maximum = 0.0585 (at node 41)
Accepted packet rate average = 0.048619
	minimum = 0.0365 (at node 13)
	maximum = 0.0585 (at node 16)
Injected flit rate average = 0.0490952
	minimum = 0.038 (at node 22)
	maximum = 0.0585 (at node 41)
Accepted flit rate average= 0.048619
	minimum = 0.0365 (at node 13)
	maximum = 0.0585 (at node 16)
Injected packet length average = 1
Accepted packet length average = 1
Total in-flight flits = 40 (0 measured)
latency change    = 0.000634547
throughput change = 0.00244858
Class 0:
Packet latency average = 23.0907
	minimum = 6
	maximum = 51
Network latency average = 23.0907
	minimum = 6
	maximum = 51
Slowest packet = 6101
Flit latency average = 23.0907
	minimum = 6
	maximum = 51
Slowest flit = 6101
Fragmentation average = 0
	minimum = 0
	maximum = 0
Injected packet rate average = 0.050881
	minimum = 0.033 (at node 38)
	maximum = 0.065 (at node 37)
Accepted packet rate average = 0.0506905
	minimum = 0.033 (at node 26)
	maximum = 0.076 (at node 1)
Injected flit rate average = 0.050881
	minimum = 0.033 (at node 38)
	maximum = 0.065 (at node 37)
Accepted flit rate average= 0.0506905
	minimum = 0.033 (at node 26)
	maximum = 0.076 (at node 1)
Injected packet length average = 1
Accepted packet length average = 1
Total in-flight flits = 48 (0 measured)
latency change    = 0.0229393
throughput change = 0.0408643
Warmed up ...Time used is 3000 cycles
Class 0:
Packet latency average = 22.8525
	minimum = 6
	maximum = 50
Network latency average = 22.8525
	minimum = 6
	maximum = 50
Slowest packet = 6360
Flit latency average = 22.9627
	minimum = 6
	maximum = 50
Slowest flit = 6360
Fragmentation average = 0
	minimum = 0
	maximum = 0
Injected packet rate average = 0.0491905
	minimum = 0.033 (at node 33)
	maximum = 0.064 (at node 38)
Accepted packet rate average = 0.0490952
	minimum = 0.033 (at node 0)
	maximum = 0.066 (at node 2)
Injected flit rate average = 0.0491905
	minimum = 0.033 (at node 33)
	maximum = 0.064 (at node 38)
Accepted flit rate average= 0.0490952
	minimum = 0.033 (at node 0)
	maximum = 0.066 (at node 2)
Injected packet length average = 1
Accepted packet length average = 1
Total in-flight flits = 52 (52 measured)
latency change    = 0.0104199
throughput change = 0.0324927
Class 0:
Packet latency average = 22.9519
	minimum = 6
	maximum = 52
Network latency average = 22.9519
	minimum = 6
	maximum = 52
Slowest packet = 10073
Flit latency average = 23.0045
	minimum = 6
	maximum = 52
Slowest flit = 10073
Fragmentation average = 0
	minimum = 0
	maximum = 0
Injected packet rate average = 0.0503929
	minimum = 0.042 (at node 33)
	maximum = 0.0585 (at node 41)
Accepted packet rate average = 0.0503095
	minimum = 0.0405 (at node 17)
	maximum = 0.0615 (at node 9)
Injected flit rate average = 0.0503929
	minimum = 0.042 (at node 33)
	maximum = 0.0585 (at node 41)
Accepted flit rate average= 0.0503095
	minimum = 0.0405 (at node 17)
	maximum = 0.0615 (at node 9)
Injected packet length average = 1
Accepted packet length average = 1
Total in-flight flits = 55 (55 measured)
latency change    = 0.00432899
throughput change = 0.0241363
Class 0:
Packet latency average = 23.0279
	minimum = 6
	maximum = 52
Network latency average = 23.0279
	minimum = 6
	maximum = 52
Slowest packet = 10073
Flit latency average = 23.0623
	minimum = 6
	maximum = 52
Slowest flit = 10073
Fragmentation average = 0
	minimum = 0
	maximum = 0
Injected packet rate average = 0.0505
	minimum = 0.044 (at node 35)
	maximum = 0.056 (at node 13)
Accepted packet rate average = 0.0504683
	minimum = 0.0406667 (at node 17)
	maximum = 0.059 (at node 33)
Injected flit rate average = 0.0505
	minimum = 0.044 (at node 35)
	maximum = 0.056 (at node 13)
Accepted flit rate average= 0.0504683
	minimum = 0.0406667 (at node 17)
	maximum = 0.059 (at node 33)
Injected packet length average = 1
Accepted packet length average = 1
Total in-flight flits = 52 (52 measured)
latency change    = 0.00330021
throughput change = 0.00314515
Draining all recorded packets ...
Draining remaining packets ...
Time taken is 6069 cycles
====== Overall Traffic Statistics ======
====== Traffic class 0 ======
Packet latency average = 23.0372 (1 samples)
	minimum = 6 (1 samples)
	maximum = 52 (1 samples)
Network latency average = 23.0372 (1 samples)
	minimum = 6 (1 samples)
	maximum = 52 (1 samples)
Flit latency average = 23.0619 (1 samples)
	minimum = 6 (1 samples)
	maximum = 52 (1 samples)
Fragmentation average = 0 (1 samples)
	minimum = 0 (1 samples)
	maximum = 0 (1 samples)
Injected packet rate average = 0.0505 (1 samples)
	minimum = 0.044 (1 samples)
	maximum = 0.056 (1 samples)
Accepted packet rate average = 0.0504683 (1 samples)
	minimum = 0.0406667 (1 samples)
	maximum = 0.059 (1 samples)
Injected flit rate average = 0.0505 (1 samples)
	minimum = 0.044 (1 samples)
	maximum = 0.056 (1 samples)
Accepted flit rate average = 0.0504683 (1 samples)
	minimum = 0.0406667 (1 samples)
	maximum = 0.059 (1 samples)
Injected packet size average = 1 (1 samples)
Accepted packet size average = 1 (1 samples)
Hops average = 5.23197 (1 samples)
results:0,uniform,0,0.05,6,23.0372,52,6,23.0372,52,6,23.0619,52,0,0,0,0.044,0.0505,0.056,0.0406667,0.0504683,0.059,0.044,0.0505,0.056,0.0406667,0.0504683,0.059,1,1,5.23197
Total run time 0.109285
SWEEP: Simulation run succeeded.
SWEEP: Latency is 23.0372.
SWEEP: Simulating for injection rate 0.1...
BEGIN Configuration File: mesh6x7config
// 6x7 (42-node) mesh built with the anynet topology.
// Standard "mesh" (k-ary n-cube) is symmetric (k^n nodes), so an
// asymmetric 6x7 grid is described explicitly via a network file.

topology     = anynet;
network_file = mesh6x7_anynet;

// Routing: anynet builds a minimal-path routing table per router.
routing_function = min;

//
// Flow control
//
num_vcs     = 8;
vc_buf_size = 8;

wait_for_tail_credit = 1;

vc_allocator = islip;
sw_allocator = islip;
alloc_iters  = 1;

credit_delay   = 2;
routing_delay  = 0;
vc_alloc_delay = 1;
sw_alloc_delay = 1;
st_final_delay = 1;

input_speedup    = 1;
output_speedup   = 1;
internal_speedup = 1.0;

//
// Traffic
//
sim_type       = latency;
traffic        = uniform;
packet_size    = 1;
use_read_write = 0;

warmup_periods = 3;
sample_period  = 1000;
sim_count      = 1;

injection_rate = 0.1;

END Configuration File: mesh6x7config
OVERRIDE Parameter: print_csv_results=1
OVERRIDE Parameter: injection_rate=0.1
========================Network File Parsed=================
******************node listing**********************
Node 0	Router 0
Node 1	Router 1
Node 2	Router 2
Node 3	Router 3
Node 4	Router 4
Node 5	Router 5
Node 6	Router 6
Node 7	Router 7
Node 8	Router 8
Node 9	Router 9
Node 10	Router 10
Node 11	Router 11
Node 12	Router 12
Node 13	Router 13
Node 14	Router 14
Node 15	Router 15
Node 16	Router 16
Node 17	Router 17
Node 18	Router 18
Node 19	Router 19
Node 20	Router 20
Node 21	Router 21
Node 22	Router 22
Node 23	Router 23
Node 24	Router 24
Node 25	Router 25
Node 26	Router 26
Node 27	Router 27
Node 28	Router 28
Node 29	Router 29
Node 30	Router 30
Node 31	Router 31
Node 32	Router 32
Node 33	Router 33
Node 34	Router 34
Node 35	Router 35
Node 36	Router 36
Node 37	Router 37
Node 38	Router 38
Node 39	Router 39
Node 40	Router 40
Node 41	Router 41

****************router to node listing*************
Router 0
	 Node 0 lat 1
Router 1
	 Node 1 lat 1
Router 2
	 Node 2 lat 1
Router 3
	 Node 3 lat 1
Router 4
	 Node 4 lat 1
Router 5
	 Node 5 lat 1
Router 6
	 Node 6 lat 1
Router 7
	 Node 7 lat 1
Router 8
	 Node 8 lat 1
Router 9
	 Node 9 lat 1
Router 10
	 Node 10 lat 1
Router 11
	 Node 11 lat 1
Router 12
	 Node 12 lat 1
Router 13
	 Node 13 lat 1
Router 14
	 Node 14 lat 1
Router 15
	 Node 15 lat 1
Router 16
	 Node 16 lat 1
Router 17
	 Node 17 lat 1
Router 18
	 Node 18 lat 1
Router 19
	 Node 19 lat 1
Router 20
	 Node 20 lat 1
Router 21
	 Node 21 lat 1
Router 22
	 Node 22 lat 1
Router 23
	 Node 23 lat 1
Router 24
	 Node 24 lat 1
Router 25
	 Node 25 lat 1
Router 26
	 Node 26 lat 1
Router 27
	 Node 27 lat 1
Router 28
	 Node 28 lat 1
Router 29
	 Node 29 lat 1
Router 30
	 Node 30 lat 1
Router 31
	 Node 31 lat 1
Router 32
	 Node 32 lat 1
Router 33
	 Node 33 lat 1
Router 34
	 Node 34 lat 1
Router 35
	 Node 35 lat 1
Router 36
	 Node 36 lat 1
Router 37
	 Node 37 lat 1
Router 38
	 Node 38 lat 1
Router 39
	 Node 39 lat 1
Router 40
	 Node 40 lat 1
Router 41
	 Node 41 lat 1

*****************router to router listing************
Router 0
	 Router 1 lat 1
	 Router 7 lat 1
Router 1
	 Router 0 lat 1
	 Router 2 lat 1
	 Router 8 lat 1
Router 2
	 Router 1 lat 1
	 Router 3 lat 1
	 Router 9 lat 1
Router 3
	 Router 2 lat 1
	 Router 4 lat 1
	 Router 10 lat 1
Router 4
	 Router 3 lat 1
	 Router 5 lat 1
	 Router 11 lat 1
Router 5
	 Router 4 lat 1
	 Router 6 lat 1
	 Router 12 lat 1
Router 6
	 Router 5 lat 1
	 Router 13 lat 1
Router 7
	 Router 0 lat 1
	 Router 8 lat 1
	 Router 14 lat 1
Router 8
	 Router 1 lat 1
	 Router 7 lat 1
	 Router 9 lat 1
	 Router 15 lat 1
Router 9
	 Router 2 lat 1
	 Router 8 lat 1
	 Router 10 lat 1
	 Router 16 lat 1
Router 10
	 Router 3 lat 1
	 Router 9 lat 1
	 Router 11 lat 1
	 Router 17 lat 1
Router 11
	 Router 4 lat 1
	 Router 10 lat 1
	 Router 12 lat 1
	 Router 18 lat 1
Router 12
	 Router 5 lat 1
	 Router 11 lat 1
	 Router 13 lat 1
	 Router 19 lat 1
Router 13
	 Router 6 lat 1
	 Router 12 lat 1
	 Router 20 lat 1
Router 14
	 Router 7 lat 1
	 Router 15 lat 1
	 Router 21 lat 1
Router 15
	 Router 8 lat 1
	 Router 14 lat 1
	 Router 16 lat 1
	 Router 22 lat 1
Router 16
	 Router 9 lat 1
	 Router 15 lat 1
	 Router 17 lat 1
	 Router 23 lat 1
Router 17
	 Router 10 lat 1
	 Router 16 lat 1
	 Router 18 lat 1
	 Router 24 lat 1
Router 18
	 Router 11 lat 1
	 Router 17 lat 1
	 Router 19 lat 1
	 Router 25 lat 1
Router 19
	 Router 12 lat 1
	 Router 18 lat 1
	 Router 20 lat 1
	 Router 26 lat 1
Router 20
	 Router 13 lat 1
	 Router 19 lat 1
	 Router 27 lat 1
Router 21
	 Router 14 lat 1
	 Router 22 lat 1
	 Router 28 lat 1
Router 22
	 Router 15 lat 1
	 Router 21 lat 1
	 Router 23 lat 1
	 Router 29 lat 1
Router 23
	 Router 16 lat 1
	 Router 22 lat 1
	 Router 24 lat 1
	 Router 30 lat 1
Router 24
	 Router 17 lat 1
	 Router 23 lat 1
	 Router 25 lat 1
	 Router 31 lat 1
Router 25
	 Router 18 lat 1
	 Router 24 lat 1
	 Router 26 lat 1
	 Router 32 lat 1
Router 26
	 Router 19 lat 1
	 Router 25 lat 1
	 Router 27 lat 1
	 Router 33 lat 1
Router 27
	 Router 20 lat 1
	 Router 26 lat 1
	 Router 34 lat 1
Router 28
	 Router 21 lat 1
	 Router 29 lat 1
	 Router 35 lat 1
Router 29
	 Router 22 lat 1
	 Router 28 lat 1
	 Router 30 lat 1
	 Router 36 lat 1
Router 30
	 Router 23 lat 1
	 Router 29 lat 1
	 Router 31 lat 1
	 Router 37 lat 1
Router 31
	 Router 24 lat 1
	 Router 30 lat 1
	 Router 32 lat 1
	 Router 38 lat 1
Router 32
	 Router 25 lat 1
	 Router 31 lat 1
	 Router 33 lat 1
	 Router 39 lat 1
Router 33
	 Router 26 lat 1
	 Router 32 lat 1
	 Router 34 lat 1
	 Router 40 lat 1
Router 34
	 Router 27 lat 1
	 Router 33 lat 1
	 Router 41 lat 1
Router 35
	 Router 28 lat 1
	 Router 36 lat 1
Router 36
	 Router 29 lat 1
	 Router 35 lat 1
	 Router 37 lat 1
Router 37
	 Router 30 lat 1
	 Router 36 lat 1
	 Router 38 lat 1
Router 38
	 Router 31 lat 1
	 Router 37 lat 1
	 Router 39 lat 1
Router 39
	 Router 32 lat 1
	 Router 38 lat 1
	 Router 40 lat 1
Router 40
	 Router 33 lat 1
	 Router 39 lat 1
	 Router 41 lat 1
Router 41
	 Router 34 lat 1
	 Router 40 lat 1
==========================Node to Router =====================
router 0 radix 3
	 connected to node 0 at outport 0 lat 1
router 1 radix 4
	 connected to node 1 at outport 0 lat 1
router 2 radix 4
	 connected to node 2 at outport 0 lat 1
router 3 radix 4
	 connected to node 3 at outport 0 lat 1
router 4 radix 4
	 connected to node 4 at outport 0 lat 1
router 5 radix 4
	 connected to node 5 at outport 0 lat 1
router 6 radix 3
	 connected to node 6 at outport 0 lat 1
router 7 radix 4
	 connected to node 7 at outport 0 lat 1
router 8 radix 5
	 connected to node 8 at outport 0 lat 1
router 9 radix 5
	 connected to node 9 at outport 0 lat 1
router 10 radix 5
	 connected to node 10 at outport 0 lat 1
router 11 radix 5
	 connected to node 11 at outport 0 lat 1
router 12 radix 5
	 connected to node 12 at outport 0 lat 1
router 13 radix 4
	 connected to node 13 at outport 0 lat 1
router 14 radix 4
	 connected to node 14 at outport 0 lat 1
router 15 radix 5
	 connected to node 15 at outport 0 lat 1
router 16 radix 5
	 connected to node 16 at outport 0 lat 1
router 17 radix 5
	 connected to node 17 at outport 0 lat 1
router 18 radix 5
	 connected to node 18 at outport 0 lat 1
router 19 radix 5
	 connected to node 19 at outport 0 lat 1
router 20 radix 4
	 connected to node 20 at outport 0 lat 1
router 21 radix 4
	 connected to node 21 at outport 0 lat 1
router 22 radix 5
	 connected to node 22 at outport 0 lat 1
router 23 radix 5
	 connected to node 23 at outport 0 lat 1
router 24 radix 5
	 connected to node 24 at outport 0 lat 1
router 25 radix 5
	 connected to node 25 at outport 0 lat 1
router 26 radix 5
	 connected to node 26 at outport 0 lat 1
router 27 radix 4
	 connected to node 27 at outport 0 lat 1
router 28 radix 4
	 connected to node 28 at outport 0 lat 1
router 29 radix 5
	 connected to node 29 at outport 0 lat 1
router 30 radix 5
	 connected to node 30 at outport 0 lat 1
router 31 radix 5
	 connected to node 31 at outport 0 lat 1
router 32 radix 5
	 connected to node 32 at outport 0 lat 1
router 33 radix 5
	 connected to node 33 at outport 0 lat 1
router 34 radix 4
	 connected to node 34 at outport 0 lat 1
router 35 radix 3
	 connected to node 35 at outport 0 lat 1
router 36 radix 4
	 connected to node 36 at outport 0 lat 1
router 37 radix 4
	 connected to node 37 at outport 0 lat 1
router 38 radix 4
	 connected to node 38 at outport 0 lat 1
router 39 radix 4
	 connected to node 39 at outport 0 lat 1
router 40 radix 4
	 connected to node 40 at outport 0 lat 1
router 41 radix 3
	 connected to node 41 at outport 0 lat 1
==========================Router to Router =====================
router 0
	 connected to router 1 using link 0 at outport 1 lat 1
	 connected to router 7 using link 1 at outport 2 lat 1
router 1
	 connected to router 0 using link 2 at outport 1 lat 1
	 connected to router 2 using link 3 at outport 2 lat 1
	 connected to router 8 using link 4 at outport 3 lat 1
router 2
	 connected to router 1 using link 5 at outport 1 lat 1
	 connected to router 3 using link 6 at outport 2 lat 1
	 connected to router 9 using link 7 at outport 3 lat 1
router 3
	 connected to router 2 using link 8 at outport 1 lat 1
	 connected to router 4 using link 9 at outport 2 lat 1
	 connected to router 10 using link 10 at outport 3 lat 1
router 4
	 connected to router 3 using link 11 at outport 1 lat 1
	 connected to router 5 using link 12 at outport 2 lat 1
	 connected to router 11 using link 13 at outport 3 lat 1
router 5
	 connected to router 4 using link 14 at outport 1 lat 1
	 connected to router 6 using link 15 at outport 2 lat 1
	 connected to router 12 using link 16 at outport 3 lat 1
router 6
	 connected to router 5 using link 17 at outport 1 lat 1
	 connected to router 13 using link 18 at outport 2 lat 1
router 7
	 connected to router 0 using link 19 at outport 1 lat 1
	 connected to router 8 using link 20 at outport 2 lat 1
	 connected to router 14 using link 21 at outport 3 lat 1
router 8
	 connected to router 1 using link 22 at outport 1 lat 1
	 connected to router 7 using link 23 at outport 2 lat 1
	 connected to router 9 using link 24 at outport 3 lat 1
	 connected to router 15 using link 25 at outport 4 lat 1
router 9
	 connected to router 2 using link 26 at outport 1 lat 1
	 connected to router 8 using link 27 at outport 2 lat 1
	 connected to router 10 using link 28 at outport 3 lat 1
	 connected to router 16 using link 29 at outport 4 lat 1
router 10
	 connected to router 3 using link 30 at outport 1 lat 1
	 connected to router 9 using link 31 at outport 2 lat 1
	 connected to router 11 using link 32 at outport 3 lat 1
	 connected to router 17 using link 33 at outport 4 lat 1
router 11
	 connected to router 4 using link 34 at outport 1 lat 1
	 connected to router 10 using link 35 at outport 2 lat 1
	 connected to router 12 using link 36 at outport 3 lat 1
	 connected to router 18 using link 37 at outport 4 lat 1
router 12
	 connected to router 5 using link 38 at outport 1 lat 1
	 connected to router 11 using link 39 at outport 2 lat 1
	 connected to router 13 using link 40 at outport 3 lat 1
	 connected to router 19 using link 41 at outport 4 lat 1
router 13
	 connected to router 6 using link 42 at outport 1 lat 1
	 connected to router 12 using link 43 at outport 2 lat 1
	 connected to router 20 using link 44 at outport 3 lat 1
router 14
	 connected to router 7 using link 45 at outport 1 lat 1
	 connected to router 15 using link 46 at outport 2 lat 1
	 connected to router 21 using link 47 at outport 3 lat 1
router 15
	 connected to router 8 using link 48 at outport 1 lat 1
	 connected to router 14 using link 49 at outport 2 lat 1
	 connected to router 16 using link 50 at outport 3 lat 1
	 connected to router 22 using link 51 at outport 4 lat 1
router 16
	 connected to router 9 using link 52 at outport 1 lat 1
	 connected to router 15 using link 53 at outport 2 lat 1
	 connected to router 17 using link 54 at outport 3 lat 1
	 connected to router 23 using link 55 at outport 4 lat 1
router 17
	 connected to router 10 using link 56 at outport 1 lat 1
	 connected to router 16 using link 57 at outport 2 lat 1
	 connected to router 18 using link 58 at outport 3 lat 1
	 connected to router 24 using link 59 at outport 4 lat 1
router 18
	 connected to router 11 using link 60 at outport 1 lat 1
	 connected to router 17 using link 61 at outport 2 lat 1
	 connected to router 19 using link 62 at outport 3 lat 1
	 connected to router 25 using link 63 at outport 4 lat 1
router 19
	 connected to router 12 using link 64 at outport 1 lat 1
	 connected to router 18 using link 65 at outport 2 lat 1
	 connected to router 20 using link 66 at outport 3 lat 1
	 connected to router 26 using link 67 at outport 4 lat 1
router 20
	 connected to router 13 using link 68 at outport 1 lat 1
	 connected to router 19 using link 69 at outport 2 lat 1
	 connected to router 27 using link 70 at outport 3 lat 1
router 21
	 connected to router 14 using link 71 at outport 1 lat 1
	 connected to router 22 using link 72 at outport 2 lat 1
	 connected to router 28 using link 73 at outport 3 lat 1
router 22
	 connected to router 15 using link 74 at outport 1 lat 1
	 connected to router 21 using link 75 at outport 2 lat 1
	 connected to router 23 using link 76 at outport 3 lat 1
	 connected to router 29 using link 77 at outport 4 lat 1
router 23
	 connected to router 16 using link 78 at outport 1 lat 1
	 connected to router 22 using link 79 at outport 2 lat 1
	 connected to router 24 using link 80 at outport 3 lat 1
	 connected to router 30 using link 81 at outport 4 lat 1
router 24
	 connected to router 17 using link 82 at outport 1 lat 1
	 connected to router 23 using link 83 at outport 2 lat 1
	 connected to router 25 using link 84 at outport 3 lat 1
	 connected to router 31 using link 85 at outport 4 lat 1
router 25
	 connected to router 18 using link 86 at outport 1 lat 1
	 connected to router 24 using link 87 at outport 2 lat 1
	 connected to router 26 using link 88 at outport 3 lat 1
	 connected to router 32 using link 89 at outport 4 lat 1
router 26
	 connected to router 19 using link 90 at outport 1 lat 1
	 connected to router 25 using link 91 at outport 2 lat 1
	 connected to router 27 using link 92 at outport 3 lat 1
	 connected to router 33 using link 93 at outport 4 lat 1
router 27
	 connected to router 20 using link 94 at outport 1 lat 1
	 connected to router 26 using link 95 at outport 2 lat 1
	 connected to router 34 using link 96 at outport 3 lat 1
router 28
	 connected to router 21 using link 97 at outport 1 lat 1
	 connected to router 29 using link 98 at outport 2 lat 1
	 connected to router 35 using link 99 at outport 3 lat 1
router 29
	 connected to router 22 using link 100 at outport 1 lat 1
	 connected to router 28 using link 101 at outport 2 lat 1
	 connected to router 30 using link 102 at outport 3 lat 1
	 connected to router 36 using link 103 at outport 4 lat 1
router 30
	 connected to router 23 using link 104 at outport 1 lat 1
	 connected to router 29 using link 105 at outport 2 lat 1
	 connected to router 31 using link 106 at outport 3 lat 1
	 connected to router 37 using link 107 at outport 4 lat 1
router 31
	 connected to router 24 using link 108 at outport 1 lat 1
	 connected to router 30 using link 109 at outport 2 lat 1
	 connected to router 32 using link 110 at outport 3 lat 1
	 connected to router 38 using link 111 at outport 4 lat 1
router 32
	 connected to router 25 using link 112 at outport 1 lat 1
	 connected to router 31 using link 113 at outport 2 lat 1
	 connected to router 33 using link 114 at outport 3 lat 1
	 connected to router 39 using link 115 at outport 4 lat 1
router 33
	 connected to router 26 using link 116 at outport 1 lat 1
	 connected to router 32 using link 117 at outport 2 lat 1
	 connected to router 34 using link 118 at outport 3 lat 1
	 connected to router 40 using link 119 at outport 4 lat 1
router 34
	 connected to router 27 using link 120 at outport 1 lat 1
	 connected to router 33 using link 121 at outport 2 lat 1
	 connected to router 41 using link 122 at outport 3 lat 1
router 35
	 connected to router 28 using link 123 at outport 1 lat 1
	 connected to router 36 using link 124 at outport 2 lat 1
router 36
	 connected to router 29 using link 125 at outport 1 lat 1
	 connected to router 35 using link 126 at outport 2 lat 1
	 connected to router 37 using link 127 at outport 3 lat 1
router 37
	 connected to router 30 using link 128 at outport 1 lat 1
	 connected to router 36 using link 129 at outport 2 lat 1
	 connected to router 38 using link 130 at outport 3 lat 1
router 38
	 connected to router 31 using link 131 at outport 1 lat 1
	 connected to router 37 using link 132 at outport 2 lat 1
	 connected to router 39 using link 133 at outport 3 lat 1
router 39
	 connected to router 32 using link 134 at outport 1 lat 1
	 connected to router 38 using link 135 at outport 2 lat 1
	 connected to router 40 using link 136 at outport 3 lat 1
router 40
	 connected to router 33 using link 137 at outport 1 lat 1
	 connected to router 39 using link 138 at outport 2 lat 1
	 connected to router 41 using link 139 at outport 3 lat 1
router 41
	 connected to router 34 using link 140 at outport 1 lat 1
	 connected to router 40 using link 141 at outport 2 lat 1
========================== Routing table  =====================
Class 0:
Packet latency average = 23.0494
	minimum = 6
	maximum = 52
Network latency average = 23.0494
	minimum = 6
	maximum = 52
Slowest packet = 1167
Flit latency average = 23.0494
	minimum = 6
	maximum = 52
Slowest flit = 1167
Fragmentation average = 0
	minimum = 0
	maximum = 0
Injected packet rate average = 0.0973333
	minimum = 0.076 (at node 16)
	maximum = 0.119 (at node 28)
Accepted packet rate average = 0.0949286
	minimum = 0.073 (at node 13)
	maximum = 0.115 (at node 16)
Injected flit rate average = 0.0973333
	minimum = 0.076 (at node 16)
	maximum = 0.119 (at node 28)
Accepted flit rate average= 0.0949286
	minimum = 0.073 (at node 13)
	maximum = 0.115 (at node 16)
Injected packet length average = 1
Accepted packet length average = 1
Total in-flight flits = 101 (0 measured)
latency change    = 1
throughput change = 1
Class 0:
Packet latency average = 23.1718
	minimum = 6
	maximum = 53
Network latency average = 23.1718
	minimum = 6
	maximum = 53
Slowest packet = 6386
Flit latency average = 23.1718
	minimum = 6
	maximum = 53
Slowest flit = 6386
Fragmentation average = 0
	minimum = 0
	maximum = 0
Injected packet rate average = 0.098369
	minimum = 0.0865 (at node 9)
	maximum = 0.113 (at node 28)
Accepted packet rate average = 0.0972381
	minimum = 0.0815 (at node 15)
	maximum = 0.1145 (at node 16)
Injected flit rate average = 0.098369
	minimum = 0.0865 (at node 9)
	maximum = 0.113 (at node 28)
Accepted flit rate average= 0.0972381
	minimum = 0.0815 (at node 15)
	maximum = 0.1145 (at node 16)
Injected packet length average = 1
Accepted packet length average = 1
Total in-flight flits = 95 (0 measured)
latency change    = 0.00528045
throughput change = 0.0237512
Class 0:
Packet latency average = 23.2082
	minimum = 6
	maximum = 51
Network latency average = 23.2082
	minimum = 6
	maximum = 51
Slowest packet = 9399
Flit latency average = 23.2082
	minimum = 6
	maximum = 51
Slowest flit = 9399
Fragmentation average = 0
	minimum = 0
	maximum = 0
Injected packet rate average = 0.100976
	minimum = 0.075 (at node 6)
	maximum = 0.121 (at node 39)
Accepted packet rate average = 0.100738
	minimum = 0.075 (at node 17)
	maximum = 0.124 (at node 13)
Injected flit rate average = 0.100976
	minimum = 0.075 (at node 6)
	maximum = 0.121 (at node 39)
Accepted flit rate average= 0.100738
	minimum = 0.075 (at node 17)
	maximum = 0.124 (at node 13)
Injected packet length average = 1
Accepted packet length average = 1
Total in-flight flits = 105 (0 measured)
latency change    = 0.00157087
throughput change = 0.0347436
Warmed up ...Time used is 3000 cycles
Class 0:
Packet latency average = 23.1515
	minimum = 6
	maximum = 52
Network latency average = 23.1515
	minimum = 6
	maximum = 52
Slowest packet = 13245
Flit latency average = 23.2818
	minimum = 6
	maximum = 52
Slowest flit = 13245
Fragmentation average = 0
	minimum = 0
	maximum = 0
Injected packet rate average = 0.0962619
	minimum = 0.082 (at node 11)
	maximum = 0.117 (at node 38)
Accepted packet rate average = 0.0964762
	minimum = 0.075 (at node 6)
	maximum = 0.13 (at node 22)
Injected flit rate average = 0.0962619
	minimum = 0.082 (at node 11)
	maximum = 0.117 (at node 38)
Accepted flit rate average= 0.0964762
	minimum = 0.075 (at node 6)
	maximum = 0.13 (at node 22)
Injected packet length average = 1
Accepted packet length average = 1
Total in-flight flits = 96 (96 measured)
latency change    = 0.00244984
throughput change = 0.0441757
Class 0:
Packet latency average = 23.0375
	minimum = 6
	maximum = 52
Network latency average = 23.0375
	minimum = 6
	maximum = 52
Slowest packet = 13245
Flit latency average = 23.1027
	minimum = 6
	maximum = 52
Slowest flit = 13245
Fragmentation average = 0
	minimum = 0
	maximum = 0
Injected packet rate average = 0.0987024
	minimum = 0.0835 (at node 37)
	maximum = 0.112 (at node 7)
Accepted packet rate average = 0.0986667
	minimum = 0.087 (at node 23)
	maximum = 0.127 (at node 22)
Injected flit rate average = 0.0987024
	minimum = 0.0835 (at node 37)
	maximum = 0.112 (at node 7)
Accepted flit rate average= 0.0986667
	minimum = 0.087 (at node 23)
	maximum = 0.127 (at node 22)
Injected packet length average = 1
Accepted packet length average = 1
Total in-flight flits = 108 (108 measured)
latency change    = 0.00494805
throughput change = 0.0222008
Class 0:
Packet latency average = 23.0539
	minimum = 6
	maximum = 52
Network latency average = 23.0539
	minimum = 6
	maximum = 52
Slowest packet = 13245
Flit latency average = 23.0972
	minimum = 6
	maximum = 52
Slowest flit = 13245
Fragmentation average = 0
	minimum = 0
	maximum = 0
Injected packet rate average = 0.0987937
	minimum = 0.0876667 (at node 37)
	maximum = 0.107333 (at node 22)
Accepted packet rate average = 0.0988254
	minimum = 0.087 (at node 26)
	maximum = 0.115333 (at node 22)
Injected flit rate average = 0.0987937
	minimum = 0.0876667 (at node 37)
	maximum = 0.107333 (at node 22)
Accepted flit rate average= 0.0988254
	minimum = 0.087 (at node 26)
	maximum = 0.115333 (at node 22)
Injected packet length average = 1
Accepted packet length average = 1
Total in-flight flits = 101 (101 measured)
latency change    = 0.000712391
throughput change = 0.00160617
Draining all recorded packets ...
Draining remaining packets ...
Time taken is 6088 cycles
====== Overall Traffic Statistics ======
====== Traffic class 0 ======
Packet latency average = 23.0721 (1 samples)
	minimum = 6 (1 samples)
	maximum = 52 (1 samples)
Network latency average = 23.0721 (1 samples)
	minimum = 6 (1 samples)
	maximum = 52 (1 samples)
Flit latency average = 23.1166 (1 samples)
	minimum = 6 (1 samples)
	maximum = 52 (1 samples)
Fragmentation average = 0 (1 samples)
	minimum = 0 (1 samples)
	maximum = 0 (1 samples)
Injected packet rate average = 0.0987937 (1 samples)
	minimum = 0.0876667 (1 samples)
	maximum = 0.107333 (1 samples)
Accepted packet rate average = 0.0988254 (1 samples)
	minimum = 0.087 (1 samples)
	maximum = 0.115333 (1 samples)
Injected flit rate average = 0.0987937 (1 samples)
	minimum = 0.0876667 (1 samples)
	maximum = 0.107333 (1 samples)
Accepted flit rate average = 0.0988254 (1 samples)
	minimum = 0.087 (1 samples)
	maximum = 0.115333 (1 samples)
Injected packet size average = 1 (1 samples)
Accepted packet size average = 1 (1 samples)
Hops average = 5.20421 (1 samples)
results:0,uniform,0,0.1,6,23.0721,52,6,23.0721,52,6,23.1166,52,0,0,0,0.0876667,0.0987937,0.107333,0.087,0.0988254,0.115333,0.0876667,0.0987937,0.107333,0.087,0.0988254,0.115333,1,1,5.20421
Total run time 0.178599
SWEEP: Simulation run succeeded.
SWEEP: Latency is 23.0721.
SWEEP: Simulating for injection rate 0.15...
BEGIN Configuration File: mesh6x7config
// 6x7 (42-node) mesh built with the anynet topology.
// Standard "mesh" (k-ary n-cube) is symmetric (k^n nodes), so an
// asymmetric 6x7 grid is described explicitly via a network file.

topology     = anynet;
network_file = mesh6x7_anynet;

// Routing: anynet builds a minimal-path routing table per router.
routing_function = min;

//
// Flow control
//
num_vcs     = 8;
vc_buf_size = 8;

wait_for_tail_credit = 1;

vc_allocator = islip;
sw_allocator = islip;
alloc_iters  = 1;

credit_delay   = 2;
routing_delay  = 0;
vc_alloc_delay = 1;
sw_alloc_delay = 1;
st_final_delay = 1;

input_speedup    = 1;
output_speedup   = 1;
internal_speedup = 1.0;

//
// Traffic
//
sim_type       = latency;
traffic        = uniform;
packet_size    = 1;
use_read_write = 0;

warmup_periods = 3;
sample_period  = 1000;
sim_count      = 1;

injection_rate = 0.1;

END Configuration File: mesh6x7config
OVERRIDE Parameter: print_csv_results=1
OVERRIDE Parameter: injection_rate=0.15
========================Network File Parsed=================
******************node listing**********************
Node 0	Router 0
Node 1	Router 1
Node 2	Router 2
Node 3	Router 3
Node 4	Router 4
Node 5	Router 5
Node 6	Router 6
Node 7	Router 7
Node 8	Router 8
Node 9	Router 9
Node 10	Router 10
Node 11	Router 11
Node 12	Router 12
Node 13	Router 13
Node 14	Router 14
Node 15	Router 15
Node 16	Router 16
Node 17	Router 17
Node 18	Router 18
Node 19	Router 19
Node 20	Router 20
Node 21	Router 21
Node 22	Router 22
Node 23	Router 23
Node 24	Router 24
Node 25	Router 25
Node 26	Router 26
Node 27	Router 27
Node 28	Router 28
Node 29	Router 29
Node 30	Router 30
Node 31	Router 31
Node 32	Router 32
Node 33	Router 33
Node 34	Router 34
Node 35	Router 35
Node 36	Router 36
Node 37	Router 37
Node 38	Router 38
Node 39	Router 39
Node 40	Router 40
Node 41	Router 41

****************router to node listing*************
Router 0
	 Node 0 lat 1
Router 1
	 Node 1 lat 1
Router 2
	 Node 2 lat 1
Router 3
	 Node 3 lat 1
Router 4
	 Node 4 lat 1
Router 5
	 Node 5 lat 1
Router 6
	 Node 6 lat 1
Router 7
	 Node 7 lat 1
Router 8
	 Node 8 lat 1
Router 9
	 Node 9 lat 1
Router 10
	 Node 10 lat 1
Router 11
	 Node 11 lat 1
Router 12
	 Node 12 lat 1
Router 13
	 Node 13 lat 1
Router 14
	 Node 14 lat 1
Router 15
	 Node 15 lat 1
Router 16
	 Node 16 lat 1
Router 17
	 Node 17 lat 1
Router 18
	 Node 18 lat 1
Router 19
	 Node 19 lat 1
Router 20
	 Node 20 lat 1
Router 21
	 Node 21 lat 1
Router 22
	 Node 22 lat 1
Router 23
	 Node 23 lat 1
Router 24
	 Node 24 lat 1
Router 25
	 Node 25 lat 1
Router 26
	 Node 26 lat 1
Router 27
	 Node 27 lat 1
Router 28
	 Node 28 lat 1
Router 29
	 Node 29 lat 1
Router 30
	 Node 30 lat 1
Router 31
	 Node 31 lat 1
Router 32
	 Node 32 lat 1
Router 33
	 Node 33 lat 1
Router 34
	 Node 34 lat 1
Router 35
	 Node 35 lat 1
Router 36
	 Node 36 lat 1
Router 37
	 Node 37 lat 1
Router 38
	 Node 38 lat 1
Router 39
	 Node 39 lat 1
Router 40
	 Node 40 lat 1
Router 41
	 Node 41 lat 1

*****************router to router listing************
Router 0
	 Router 1 lat 1
	 Router 7 lat 1
Router 1
	 Router 0 lat 1
	 Router 2 lat 1
	 Router 8 lat 1
Router 2
	 Router 1 lat 1
	 Router 3 lat 1
	 Router 9 lat 1
Router 3
	 Router 2 lat 1
	 Router 4 lat 1
	 Router 10 lat 1
Router 4
	 Router 3 lat 1
	 Router 5 lat 1
	 Router 11 lat 1
Router 5
	 Router 4 lat 1
	 Router 6 lat 1
	 Router 12 lat 1
Router 6
	 Router 5 lat 1
	 Router 13 lat 1
Router 7
	 Router 0 lat 1
	 Router 8 lat 1
	 Router 14 lat 1
Router 8
	 Router 1 lat 1
	 Router 7 lat 1
	 Router 9 lat 1
	 Router 15 lat 1
Router 9
	 Router 2 lat 1
	 Router 8 lat 1
	 Router 10 lat 1
	 Router 16 lat 1
Router 10
	 Router 3 lat 1
	 Router 9 lat 1
	 Router 11 lat 1
	 Router 17 lat 1
Router 11
	 Router 4 lat 1
	 Router 10 lat 1
	 Router 12 lat 1
	 Router 18 lat 1
Router 12
	 Router 5 lat 1
	 Router 11 lat 1
	 Router 13 lat 1
	 Router 19 lat 1
Router 13
	 Router 6 lat 1
	 Router 12 lat 1
	 Router 20 lat 1
Router 14
	 Router 7 lat 1
	 Router 15 lat 1
	 Router 21 lat 1
Router 15
	 Router 8 lat 1
	 Router 14 lat 1
	 Router 16 lat 1
	 Router 22 lat 1
Router 16
	 Router 9 lat 1
	 Router 15 lat 1
	 Router 17 lat 1
	 Router 23 lat 1
Router 17
	 Router 10 lat 1
	 Router 16 lat 1
	 Router 18 lat 1
	 Router 24 lat 1
Router 18
	 Router 11 lat 1
	 Router 17 lat 1
	 Router 19 lat 1
	 Router 25 lat 1
Router 19
	 Router 12 lat 1
	 Router 18 lat 1
	 Router 20 lat 1
	 Router 26 lat 1
Router 20
	 Router 13 lat 1
	 Router 19 lat 1
	 Router 27 lat 1
Router 21
	 Router 14 lat 1
	 Router 22 lat 1
	 Router 28 lat 1
Router 22
	 Router 15 lat 1
	 Router 21 lat 1
	 Router 23 lat 1
	 Router 29 lat 1
Router 23
	 Router 16 lat 1
	 Router 22 lat 1
	 Router 24 lat 1
	 Router 30 lat 1
Router 24
	 Router 17 lat 1
	 Router 23 lat 1
	 Router 25 lat 1
	 Router 31 lat 1
Router 25
	 Router 18 lat 1
	 Router 24 lat 1
	 Router 26 lat 1
	 Router 32 lat 1
Router 26
	 Router 19 lat 1
	 Router 25 lat 1
	 Router 27 lat 1
	 Router 33 lat 1
Router 27
	 Router 20 lat 1
	 Router 26 lat 1
	 Router 34 lat 1
Router 28
	 Router 21 lat 1
	 Router 29 lat 1
	 Router 35 lat 1
Router 29
	 Router 22 lat 1
	 Router 28 lat 1
	 Router 30 lat 1
	 Router 36 lat 1
Router 30
	 Router 23 lat 1
	 Router 29 lat 1
	 Router 31 lat 1
	 Router 37 lat 1
Router 31
	 Router 24 lat 1
	 Router 30 lat 1
	 Router 32 lat 1
	 Router 38 lat 1
Router 32
	 Router 25 lat 1
	 Router 31 lat 1
	 Router 33 lat 1
	 Router 39 lat 1
Router 33
	 Router 26 lat 1
	 Router 32 lat 1
	 Router 34 lat 1
	 Router 40 lat 1
Router 34
	 Router 27 lat 1
	 Router 33 lat 1
	 Router 41 lat 1
Router 35
	 Router 28 lat 1
	 Router 36 lat 1
Router 36
	 Router 29 lat 1
	 Router 35 lat 1
	 Router 37 lat 1
Router 37
	 Router 30 lat 1
	 Router 36 lat 1
	 Router 38 lat 1
Router 38
	 Router 31 lat 1
	 Router 37 lat 1
	 Router 39 lat 1
Router 39
	 Router 32 lat 1
	 Router 38 lat 1
	 Router 40 lat 1
Router 40
	 Router 33 lat 1
	 Router 39 lat 1
	 Router 41 lat 1
Router 41
	 Router 34 lat 1
	 Router 40 lat 1
==========================Node to Router =====================
router 0 radix 3
	 connected to node 0 at outport 0 lat 1
router 1 radix 4
	 connected to node 1 at outport 0 lat 1
router 2 radix 4
	 connected to node 2 at outport 0 lat 1
router 3 radix 4
	 connected to node 3 at outport 0 lat 1
router 4 radix 4
	 connected to node 4 at outport 0 lat 1
router 5 radix 4
	 connected to node 5 at outport 0 lat 1
router 6 radix 3
	 connected to node 6 at outport 0 lat 1
router 7 radix 4
	 connected to node 7 at outport 0 lat 1
router 8 radix 5
	 connected to node 8 at outport 0 lat 1
router 9 radix 5
[...]
router 5
	 connected to router 4 using link 14 at outport 1 lat 1
	 connected to router 6 using link 15 at outport 2 lat 1
	 connected to router 12 using link 16 at outport 3 lat 1
router 6
	 connected to router 5 using link 17 at outport 1 lat 1
	 connected to router 13 using link 18 at outport 2 lat 1
router 7
	 connected to router 0 using link 19 at outport 1 lat 1
	 connected to router 8 using link 20 at outport 2 lat 1
	 connected to router 14 using link 21 at outport 3 lat 1
router 8
	 connected to router 1 using link 22 at outport 1 lat 1
	 connected to router 7 using link 23 at outport 2 lat 1
	 connected to router 9 using link 24 at outport 3 lat 1
	 connected to router 15 using link 25 at outport 4 lat 1
router 9
	 connected to router 2 using link 26 at outport 1 lat 1
	 connected to router 8 using link 27 at outport 2 lat 1
	 connected to router 10 using link 28 at outport 3 lat 1
	 connected to router 16 using link 29 at outport 4 lat 1
router 10
	 connected to router 3 using link 30 at outport 1 lat 1
	 connected to router 9 using link 31 at outport 2 lat 1
	 connected to router 11 using link 32 at outport 3 lat 1
	 connected to router 17 using link 33 at outport 4 lat 1
router 11
	 connected to router 4 using link 34 at outport 1 lat 1
	 connected to router 10 using link 35 at outport 2 lat 1
	 connected to router 12 using link 36 at outport 3 lat 1
	 connected to router 18 using link 37 at outport 4 lat 1
router 12
	 connected to router 5 using link 38 at outport 1 lat 1
	 connected to router 11 using link 39 at outport 2 lat 1
	 connected to router 13 using link 40 at outport 3 lat 1
	 connected to router 19 using link 41 at outport 4 lat 1
router 13
	 connected to router 6 using link 42 at outport 1 lat 1
	 connected to router 12 using link 43 at outport 2 lat 1
	 connected to router 20 using link 44 at outport 3 lat 1
router 14
	 connected to router 7 using link 45 at outport 1 lat 1
	 connected to router 15 using link 46 at outport 2 lat 1
	 connected to router 21 using link 47 at outport 3 lat 1
router 15
	 connected to router 8 using link 48 at outport 1 lat 1
	 connected to router 14 using link 49 at outport 2 lat 1
	 connected to router 16 using link 50 at outport 3 lat 1
	 connected to router 22 using link 51 at outport 4 lat 1
router 16
	 connected to router 9 using link 52 at outport 1 lat 1
	 connected to router 15 using link 53 at outport 2 lat 1
	 connected to router 17 using link 54 at outport 3 lat 1
	 connected to router 23 using link 55 at outport 4 lat 1
router 17
	 connected to router 10 using link 56 at outport 1 lat 1
	 connected to router 16 using link 57 at outport 2 lat 1
	 connected to router 18 using link 58 at outport 3 lat 1
	 connected to router 24 using link 59 at outport 4 lat 1
router 18
	 connected to router 11 using link 60 at outport 1 lat 1
	 connected to router 17 using link 61 at outport 2 lat 1
	 connected to router 19 using link 62 at outport 3 lat 1
	 connected to router 25 using link 63 at outport 4 lat 1
router 19
	 connected to router 12 using link 64 at outport 1 lat 1
	 connected to router 18 using link 65 at outport 2 lat 1
	 connected to router 20 using link 66 at outport 3 lat 1
	 connected to router 26 using link 67 at outport 4 lat 1
router 20
	 connected to router 13 using link 68 at outport 1 lat 1
	 connected to router 19 using link 69 at outport 2 lat 1
	 connected to router 27 using link 70 at outport 3 lat 1
router 21
	 connected to router 14 using link 71 at outport 1 lat 1
	 connected to router 22 using link 72 at outport 2 lat 1
	 connected to router 28 using link 73 at outport 3 lat 1
router 22
	 connected to router 15 using link 74 at outport 1 lat 1
	 connected to router 21 using link 75 at outport 2 lat 1
	 connected to router 23 using link 76 at outport 3 lat 1
	 connected to router 29 using link 77 at outport 4 lat 1
router 23
	 connected to router 16 using link 78 at outport 1 lat 1
	 connected to router 22 using link 79 at outport 2 lat 1
	 connected to router 24 using link 80 at outport 3 lat 1
	 connected to router 30 using link 81 at outport 4 lat 1
router 24
	 connected to router 17 using link 82 at outport 1 lat 1
	 connected to router 23 using link 83 at outport 2 lat 1
	 connected to router 25 using link 84 at outport 3 lat 1
	 connected to router 31 using link 85 at outport 4 lat 1
router 25
	 connected to router 18 using link 86 at outport 1 lat 1
	 connected to router 24 using link 87 at outport 2 lat 1
	 connected to router 26 using link 88 at outport 3 lat 1
	 connected to router 32 using link 89 at outport 4 lat 1
router 26
	 connected to router 19 using link 90 at outport 1 lat 1
	 connected to router 25 using link 91 at outport 2 lat 1
	 connected to router 27 using link 92 at outport 3 lat 1
	 connected to router 33 using link 93 at outport 4 lat 1
router 27
	 connected to router 20 using link 94 at outport 1 lat 1
	 connected to router 26 using link 95 at outport 2 lat 1
	 connected to router 34 using link 96 at outport 3 lat 1
router 28
	 connected to router 21 using link 97 at outport 1 lat 1
	 connected to router 29 using link 98 at outport 2 lat 1
	 connected to router 35 using link 99 at outport 3 lat 1
router 29
	 connected to router 22 using link 100 at outport 1 lat 1
	 connected to router 28 using link 101 at outport 2 lat 1
	 connected to router 30 using link 102 at outport 3 lat 1
	 connected to router 36 using link 103 at outport 4 lat 1
router 30
	 connected to router 23 using link 104 at outport 1 lat 1
	 connected to router 29 using link 105 at outport 2 lat 1
	 connected to router 31 using link 106 at outport 3 lat 1
	 connected to router 37 using link 107 at outport 4 lat 1
router 31
	 connected to router 24 using link 108 at outport 1 lat 1
	 connected to router 30 using link 109 at outport 2 lat 1
	 connected to router 32 using link 110 at outport 3 lat 1
	 connected to router 38 using link 111 at outport 4 lat 1
router 32
	 connected to router 25 using link 112 at outport 1 lat 1
	 connected to router 31 using link 113 at outport 2 lat 1
	 connected to router 33 using link 114 at outport 3 lat 1
	 connected to router 39 using link 115 at outport 4 lat 1
router 33
	 connected to router 26 using link 116 at outport 1 lat 1
	 connected to router 32 using link 117 at outport 2 lat 1
	 connected to router 34 using link 118 at outport 3 lat 1
	 connected to router 40 using link 119 at outport 4 lat 1
router 34
	 connected to router 27 using link 120 at outport 1 lat 1
	 connected to router 33 using link 121 at outport 2 lat 1
	 connected to router 41 using link 122 at outport 3 lat 1
router 35
	 connected to router 28 using link 123 at outport 1 lat 1
	 connected to router 36 using link 124 at outport 2 lat 1
router 36
	 connected to router 29 using link 125 at outport 1 lat 1
	 connected to router 35 using link 126 at outport 2 lat 1
	 connected to router 37 using link 127 at outport 3 lat 1
router 37
	 connected to router 30 using link 128 at outport 1 lat 1
	 connected to router 36 using link 129 at outport 2 lat 1
	 connected to router 38 using link 130 at outport 3 lat 1
router 38
	 connected to router 31 using link 131 at outport 1 lat 1
	 connected to router 37 using link 132 at outport 2 lat 1
	 connected to router 39 using link 133 at outport 3 lat 1
router 39
	 connected to router 32 using link 134 at outport 1 lat 1
	 connected to router 38 using link 135 at outport 2 lat 1
	 connected to router 40 using link 136 at outport 3 lat 1
router 40
	 connected to router 33 using link 137 at outport 1 lat 1
	 connected to router 39 using link 138 at outport 2 lat 1
	 connected to router 41 using link 139 at outport 3 lat 1
router 41
	 connected to router 34 using link 140 at outport 1 lat 1
	 connected to router 40 using link 141 at outport 2 lat 1
========================== Routing table  =====================
Class 0:
Packet latency average = 29.8065
	minimum = 6
	maximum = 255
Network latency average = 28.9697
	minimum = 6
	maximum = 255
Slowest packet = 7454
Flit latency average = 28.9697
	minimum = 6
	maximum = 255
Slowest flit = 7454
Fragmentation average = 0
	minimum = 0
	maximum = 0
Injected packet rate average = 0.241357
	minimum = 0.204 (at node 6)
	maximum = 0.27 (at node 15)
Accepted packet rate average = 0.231857
	minimum = 0.196 (at node 18)
	maximum = 0.266 (at node 16)
Injected flit rate average = 0.241357
	minimum = 0.204 (at node 6)
	maximum = 0.27 (at node 15)
Accepted flit rate average= 0.231857
	minimum = 0.196 (at node 18)
	maximum = 0.266 (at node 16)
Injected packet length average = 1
Accepted packet length average = 1
Total in-flight flits = 403 (0 measured)
latency change    = 1
throughput change = 1
Class 0:
Packet latency average = 42.8438
	minimum = 6
	maximum = 704
Network latency average = 34.0745
	minimum = 6
	maximum = 614
Slowest packet = 10516
Flit latency average = 34.0745
	minimum = 6
	maximum = 614
Slowest flit = 13633
Fragmentation average = 0
	minimum = 0
	maximum = 0
Injected packet rate average = 0.237774
	minimum = 0.1825 (at node 6)
	maximum = 0.2735 (at node 15)
Accepted packet rate average = 0.232893
	minimum = 0.211 (at node 37)
	maximum = 0.256 (at node 16)
Injected flit rate average = 0.237774
	minimum = 0.1825 (at node 6)
	maximum = 0.2735 (at node 15)
Accepted flit rate average= 0.232893
	minimum = 0.211 (at node 37)
	maximum = 0.256 (at node 16)
Injected packet length average = 1
Accepted packet length average = 1
Total in-flight flits = 417 (0 measured)
latency change    = 0.304298
throughput change = 0.00444717
Class 0:
Packet latency average = 91.256
	minimum = 6
	maximum = 1377
Network latency average = 41.9521
	minimum = 6
	maximum = 920
Slowest packet = 12695
Flit latency average = 41.9521
	minimum = 6
	maximum = 920
Slowest flit = 19660
Fragmentation average = 0
	minimum = 0
	maximum = 0
Injected packet rate average = 0.230524
	minimum = 0.057 (at node 28)
	maximum = 0.284 (at node 37)
Accepted packet rate average = 0.230643
	minimum = 0.192 (at node 21)
	maximum = 0.271 (at node 5)
Injected flit rate average = 0.230524
	minimum = 0.057 (at node 28)
	maximum = 0.284 (at node 37)
Accepted flit rate average= 0.230643
	minimum = 0.192 (at node 21)
	maximum = 0.271 (at node 5)
Injected packet length average = 1
Accepted packet length average = 1
Total in-flight flits = 413 (0 measured)
latency change    = 0.530509
throughput change = 0.00975534
Warmed up ...Time used is 3000 cycles
Class 0:
Packet latency average = 152.274
	minimum = 6
	maximum = 1876
Network latency average = 36.238
	minimum = 6
	maximum = 566
Slowest packet = 29678
Flit latency average = 40.4367
	minimum = 6
	maximum = 885
Slowest flit = 22333
Fragmentation average = 0
	minimum = 0
	maximum = 0
Injected packet rate average = 0.238238
	minimum = 0.168 (at node 41)
	maximum = 0.377 (at node 21)
Accepted packet rate average = 0.237881
	minimum = 0.197 (at node 22)
	maximum = 0.263 (at node 36)
Injected flit rate average = 0.238238
	minimum = 0.168 (at node 41)
	maximum = 0.377 (at node 21)
Accepted flit rate average= 0.237881
	minimum = 0.197 (at node 22)
	maximum = 0.263 (at node 36)
Injected packet length average = 1
Accepted packet length average = 1
Total in-flight flits = 426 (426 measured)
latency change    = 0.400713
throughput change = 0.0304274
Class 0:
Packet latency average = 151.095
	minimum = 6
	maximum = 2143
Network latency average = 38.734
	minimum = 6
	maximum = 974
Slowest packet = 29678
Flit latency average = 40.8098
	minimum = 6
	maximum = 974
Slowest flit = 39454
Fragmentation average = 0
	minimum = 0
	maximum = 0
Injected packet rate average = 0.2345
	minimum = 0.117 (at node 41)
	maximum = 0.3165 (at node 21)
Accepted packet rate average = 0.234667
	minimum = 0.211 (at node 39)
	maximum = 0.257 (at node 38)
Injected flit rate average = 0.2345
	minimum = 0.117 (at node 41)
	maximum = 0.3165 (at node 21)
Accepted flit rate average= 0.234667
	minimum = 0.211 (at node 39)
	maximum = 0.257 (at node 38)
Injected packet length average = 1
Accepted packet length average = 1
Total in-flight flits = 398 (398 measured)
latency change    = 0.00780327
throughput change = 0.0136972
Class 0:
Packet latency average = 171.905
	minimum = 6
	maximum = 2543
Network latency average = 39.3082
	minimum = 6
	maximum = 974
Slowest packet = 29678
Flit latency average = 40.6822
	minimum = 6
	maximum = 974
Slowest flit = 39454
Fragmentation average = 0
	minimum = 0
	maximum = 0
Injected packet rate average = 0.234889
	minimum = 0.115333 (at node 41)
	maximum = 0.295667 (at node 21)
Accepted packet rate average = 0.234976
	minimum = 0.216 (at node 39)
	maximum = 0.249333 (at node 10)
Injected flit rate average = 0.234889
	minimum = 0.115333 (at node 41)
	maximum = 0.295667 (at node 21)
Accepted flit rate average= 0.234976
	minimum = 0.216 (at node 39)
	maximum = 0.249333 (at node 10)
Injected packet length average = 1
Accepted packet length average = 1
Total in-flight flits = 399 (399 measured)
latency change    = 0.121051
throughput change = 0.00131726
Class 0:
Packet latency average = 185.598
	minimum = 6
	maximum = 3047
Network latency average = 39.8669
	minimum = 6
	maximum = 974
Slowest packet = 29678
Flit latency average = 40.897
	minimum = 6
	maximum = 974
Slowest flit = 39454
Fragmentation average = 0
	minimum = 0
	maximum = 0
Injected packet rate average = 0.233637
	minimum = 0.12225 (at node 41)
	maximum = 0.27275 (at node 21)
Accepted packet rate average = 0.23375
	minimum = 0.21675 (at node 12)
	maximum = 0.2515 (at node 21)
Injected flit rate average = 0.233637
	minimum = 0.12225 (at node 41)
	maximum = 0.27275 (at node 21)
Accepted flit rate average= 0.23375
	minimum = 0.21675 (at node 12)
	maximum = 0.2515 (at node 21)
Injected packet length average = 1
Accepted packet length average = 1
Total in-flight flits = 394 (394 measured)
latency change    = 0.073778
throughput change = 0.00524573
Class 0:
Packet latency average = 207.564
	minimum = 6
	maximum = 3385
Network latency average = 39.8366
	minimum = 6
	maximum = 974
Slowest packet = 29678
Flit latency average = 40.6536
	minimum = 6
	maximum = 974
Slowest flit = 39454
Fragmentation average = 0
	minimum = 0
	maximum = 0
Injected packet rate average = 0.235619
	minimum = 0.1372 (at node 41)
	maximum = 0.2724 (at node 21)
Accepted packet rate average = 0.235838
	minimum = 0.2224 (at node 12)
	maximum = 0.2492 (at node 21)
Injected flit rate average = 0.235619
	minimum = 0.1372 (at node 41)
	maximum = 0.2724 (at node 21)
Accepted flit rate average= 0.235838
	minimum = 0.2224 (at node 12)
	maximum = 0.2492 (at node 21)
Injected packet length average = 1
Accepted packet length average = 1
Total in-flight flits = 363 (363 measured)
latency change    = 0.105828
throughput change = 0.00885394
Class 0:
Packet latency average = 217.091
	minimum = 6
	maximum = 3840
Network latency average = 40.3505
	minimum = 6
	maximum = 974
Slowest packet = 29678
Flit latency average = 41.0309
	minimum = 6
	maximum = 974
Slowest flit = 39454
Fragmentation average = 0
	minimum = 0
	maximum = 0
Injected packet rate average = 0.234786
	minimum = 0.137667 (at node 41)
	maximum = 0.259333 (at node 11)
Accepted packet rate average = 0.234738
	minimum = 0.219833 (at node 12)
	maximum = 0.2475 (at node 21)
Injected flit rate average = 0.234786
	minimum = 0.137667 (at node 41)
	maximum = 0.259333 (at node 11)
Accepted flit rate average= 0.234738
	minimum = 0.219833 (at node 12)
	maximum = 0.2475 (at node 21)
Injected packet length average = 1
Accepted packet length average = 1
Total in-flight flits = 424 (424 measured)
latency change    = 0.0438849
throughput change = 0.00468607
Class 0:
Packet latency average = 237.52
	minimum = 6
	maximum = 4504
Network latency average = 40.3368
	minimum = 6
	maximum = 1102
Slowest packet = 29678
Flit latency average = 40.9194
	minimum = 6
	maximum = 1102
Slowest flit = 81140
Fragmentation average = 0
	minimum = 0
	maximum = 0
Injected packet rate average = 0.234959
	minimum = 0.138857 (at node 35)
	maximum = 0.256429 (at node 23)
Accepted packet rate average = 0.23502
	minimum = 0.224286 (at node 39)
	maximum = 0.247857 (at node 21)
Injected flit rate average = 0.234959
	minimum = 0.138857 (at node 35)
	maximum = 0.256429 (at node 23)
Accepted flit rate average= 0.23502
	minimum = 0.224286 (at node 39)
	maximum = 0.247857 (at node 21)
Injected packet length average = 1
Accepted packet length average = 1
Total in-flight flits = 395 (395 measured)
latency change    = 0.0860108
throughput change = 0.00120123
Draining all recorded packets ...
Class 0:
Remaining flits: 103985 104342 105614 105672 105981 106318 106404 106485 106487 106503 [...] (402 flits)
Measured flits: 103985 104342 105614 105672 106318 106487 106530 106579 106699 106749 [...] (121 flits)
Class 0:
Remaining flits: 114720 114803 115361 115978 116326 116369 116551 116561 116578 116586 [...] (414 flits)
Measured flits: 114720 114803 115361 115978 116326 116369 116551 116561 116578 116586 [...] (136 flits)
Class 0:
Remaining flits: 124374 124670 124779 124896 124935 124959 124991 125070 125135 125428 [...] (381 flits)
Measured flits: 124374 124670 124779 124896 124935 124959 124991 125070 125135 125428 [...] (101 flits)
Class 0:
Remaining flits: 134619 134696 134787 134997 135147 135360 135513 135712 135828 136021 [...] (396 flits)
Measured flits: 134619 134696 134787 135360 135513 135712 135828 136641 136698 136918 [...] (94 flits)
Class 0:
Remaining flits: 139337 139738 140274 140341 142051 142774 142989 143490 143722 143735 [...] (435 flits)
Measured flits: 139337 139738 140274 140341 142051 142774 142989 143490 143722 143929 [...] (61 flits)
Class 0:
Remaining flits: 151164 151203 151265 151999 152315 152733 152801 152846 153720 153865 [...] (438 flits)
Measured flits: 151164 151203 151265 151999 152315 152801 153865 153917 153957 155647 [...] (37 flits)
Class 0:
Remaining flits: 158346 158650 158777 158878 158905 160450 161055 161553 161826 162675 [...] (395 flits)
Measured flits: 160450 161055 161826 162809 162981 163025 163214 164602 164986 165114 [...] (26 flits)
Class 0:
Remaining flits: 172485 173759 174094 174255 174297 174397 174462 174635 174688 174894 [...] (375 flits)
Measured flits: 172485 173759 174255 174297 174462 174635 175290 (7 flits)
Draining remaining packets ...
Time taken is 18250 cycles
====== Overall Traffic Statistics ======
====== Traffic class 0 ======
Packet latency average = 491.785 (1 samples)
	minimum = 6 (1 samples)
	maximum = 8301 (1 samples)
Network latency average = 46.4445 (1 samples)
	minimum = 6 (1 samples)
	maximum = 1102 (1 samples)
Flit latency average = 40.9694 (1 samples)
	minimum = 6 (1 samples)
	maximum = 1166 (1 samples)
Fragmentation average = 0 (1 samples)
	minimum = 0 (1 samples)
	maximum = 0 (1 samples)
Injected packet rate average = 0.234959 (1 samples)
	minimum = 0.138857 (1 samples)
	maximum = 0.256429 (1 samples)
Accepted packet rate average = 0.23502 (1 samples)
	minimum = 0.224286 (1 samples)
	maximum = 0.247857 (1 samples)
Injected flit rate average = 0.234959 (1 samples)
	minimum = 0.138857 (1 samples)
	maximum = 0.256429 (1 samples)
Accepted flit rate average = 0.23502 (1 samples)
	minimum = 0.224286 (1 samples)
	maximum = 0.247857 (1 samples)
Injected packet size average = 1 (1 samples)
Accepted packet size average = 1 (1 samples)
Hops average = 5.24658 (1 samples)
results:0,uniform,0,0.246874,6,491.785,8301,6,46.4445,1102,6,40.9694,1166,0,0,0,0.138857,0.234959,0.256429,0.224286,0.23502,0.247857,0.138857,0.234959,0.256429,0.224286,0.23502,0.247857,1,1,5.24658
Total run time 1.29042
SWEEP: Simulation run succeeded.
SWEEP: Latency is 491.785.
SWEEP: Interval too small to refine.
SWEEP: Already failed for injection rate 0.248437 before.
SWEEP: Simulation run skipped.
SWEEP: Simulation run failed.
SWEEP: Reducing step size.
SWEEP: Step size too small.
SWEEP: Parameter sweep complete.
SWEEP: Zero-load latency: 22.0806
SWEEP: Saturation throughput: 0.246874
